/*---------------------------------------------------------------------------*\
| =========                 |                                                 |
| \\      /  F ield         | OpenFOAM: The Open Source CFD Toolbox           |
|  \\    /   O peration     | Version:  4.x                                   |
|   \\  /    A nd           | Web:      www.OpenFOAM.org                      |
|    \\/     M anipulation  |                                                 |
\*---------------------------------------------------------------------------*/
Build  : 4.x-d214c8dfd5ba
Exec   : heatedFoam -case Exeter_CFD_Problems/data/HeatExchanger/case_multi/
Date   : Jun 04 2020
Time   : 18:02:20
Host   : "andrew-pc"
PID    : 16614
Case   : Exeter_CFD_Problems/data/HeatExchanger/case_multi
nProcs : 1
sigFpe : Enabling floating point exception trapping (FOAM_SIGFPE).
fileModificationChecking : Monitoring run-time modified files using timeStampMaster
allowSystemOperations : Allowing user-supplied system call operations

// * * * * * * * * * * * * * * * * * * * * * * * * * * * * * * * * * * * * * //
Create time

Create mesh for time = 0


SIMPLE: convergence criteria
    field p	 tolerance 1e-05
    field U	 tolerance 1e-05
    field e	 tolerance 0.001
    field "(k|epsilon|omega)"	 tolerance 1e-05

Reading field p

Reading field U

Reading field T

Reading transportProperties

Reading/calculating face flux field phi

Selecting incompressible transport model Newtonian
Selecting turbulence model type laminar
No finite volume options present


Starting time loop

Time = 1

GAMG:  Solving for p, Initial residual = 1, Final residual = 0.064202, No Iterations 9
time step continuity errors : sum local = 436.596, global = -46.3594, cumulative = -46.3594
smoothSolver:  Solving for T, Initial residual = 1, Final residual = 0.00943293, No Iterations 76
ExecutionTime = 0.07 s  ClockTime = 0 s

Time = 2

GAMG:  Solving for p, Initial residual = 0.0674247, Final residual = 0.00592776, No Iterations 7
time step continuity errors : sum local = 456.84, global = -65.4573, cumulative = -111.817
smoothSolver:  Solving for T, Initial residual = 0.0810801, Final residual = 0.000715092, No Iterations 44
ExecutionTime = 0.09 s  ClockTime = 0 s

Time = 3

GAMG:  Solving for p, Initial residual = 0.0402525, Final residual = 0.00233891, No Iterations 3
time step continuity errors : sum local = 278.259, global = 81.3418, cumulative = -30.4749
smoothSolver:  Solving for T, Initial residual = 0.0217339, Final residual = 0.00018991, No Iterations 44
ExecutionTime = 0.1 s  ClockTime = 0 s

Time = 4

GAMG:  Solving for p, Initial residual = 0.0437446, Final residual = 0.00228008, No Iterations 7
time step continuity errors : sum local = 273.265, global = 43.3718, cumulative = 12.8969
smoothSolver:  Solving for T, Initial residual = 0.0220501, Final residual = 0.000218624, No Iterations 52
ExecutionTime = 0.12 s  ClockTime = 0 s

Time = 5

GAMG:  Solving for p, Initial residual = 0.0472143, Final residual = 0.00465686, No Iterations 7
time step continuity errors : sum local = 435.825, global = 64.6464, cumulative = 77.5432
smoothSolver:  Solving for T, Initial residual = 0.0224007, Final residual = 0.000208284, No Iterations 52
ExecutionTime = 0.14 s  ClockTime = 0 s

Time = 6

GAMG:  Solving for p, Initial residual = 0.0828728, Final residual = 0.00762905, No Iterations 7
time step continuity errors : sum local = 407.757, global = 60.4956, cumulative = 138.039
smoothSolver:  Solving for T, Initial residual = 0.020893, Final residual = 0.000197971, No Iterations 54
ExecutionTime = 0.15 s  ClockTime = 0 s

Time = 7

GAMG:  Solving for p, Initial residual = 0.317871, Final residual = 0.0178386, No Iterations 7
time step continuity errors : sum local = 266.079, global = 39.3054, cumulative = 177.344
smoothSolver:  Solving for T, Initial residual = 0.0176125, Final residual = 0.000171974, No Iterations 56
ExecutionTime = 0.17 s  ClockTime = 0 s

Time = 8

GAMG:  Solving for p, Initial residual = 0.162846, Final residual = 0.0159136, No Iterations 3
time step continuity errors : sum local = 447.085, global = 1.83911, cumulative = 179.183
smoothSolver:  Solving for T, Initial residual = 0.0118239, Final residual = 0.000107381, No Iterations 64
ExecutionTime = 0.19 s  ClockTime = 0 s

Time = 9

GAMG:  Solving for p, Initial residual = 0.106995, Final residual = 0.00678181, No Iterations 3
time step continuity errors : sum local = 248.805, global = -70.7651, cumulative = 108.418
smoothSolver:  Solving for T, Initial residual = 0.0120223, Final residual = 0.000115028, No Iterations 58
ExecutionTime = 0.2 s  ClockTime = 0 s

Time = 10

GAMG:  Solving for p, Initial residual = 0.0862711, Final residual = 0.00681234, No Iterations 5
time step continuity errors : sum local = 245.334, global = -37.4915, cumulative = 70.9267
smoothSolver:  Solving for T, Initial residual = 0.00841505, Final residual = 7.83795e-05, No Iterations 60
ExecutionTime = 0.22 s  ClockTime = 0 s

Time = 11

GAMG:  Solving for p, Initial residual = 0.0878411, Final residual = 0.0054283, No Iterations 7
time step continuity errors : sum local = 145.96, global = -21.9981, cumulative = 48.9286
smoothSolver:  Solving for T, Initial residual = 0.00769985, Final residual = 7.52797e-05, No Iterations 56
ExecutionTime = 0.23 s  ClockTime = 0 s

Time = 12

GAMG:  Solving for p, Initial residual = 0.161019, Final residual = 0.00999843, No Iterations 7
time step continuity errors : sum local = 128.409, global = -19.2074, cumulative = 29.7211
smoothSolver:  Solving for T, Initial residual = 0.006025, Final residual = 5.66782e-05, No Iterations 60
ExecutionTime = 0.25 s  ClockTime = 0 s

Time = 13

GAMG:  Solving for p, Initial residual = 0.216277, Final residual = 0.0207138, No Iterations 5
time step continuity errors : sum local = 194.611, global = -18.7379, cumulative = 10.9832
smoothSolver:  Solving for T, Initial residual = 0.00481418, Final residual = 4.36042e-05, No Iterations 64
ExecutionTime = 0.27 s  ClockTime = 0 s

Time = 14

GAMG:  Solving for p, Initial residual = 0.11169, Final residual = 0.00555051, No Iterations 4
time step continuity errors : sum local = 97.3656, global = -39.6738, cumulative = -28.6905
smoothSolver:  Solving for T, Initial residual = 0.00564208, Final residual = 5.51831e-05, No Iterations 66
ExecutionTime = 0.28 s  ClockTime = 0 s

Time = 15

GAMG:  Solving for p, Initial residual = 0.0874366, Final residual = 0.00855135, No Iterations 3
time step continuity errors : sum local = 163.804, global = 27.3475, cumulative = -1.34302
smoothSolver:  Solving for T, Initial residual = 0.00429689, Final residual = 4.09911e-05, No Iterations 66
ExecutionTime = 0.29 s  ClockTime = 0 s

Time = 16

GAMG:  Solving for p, Initial residual = 0.0671682, Final residual = 0.00574331, No Iterations 5
time step continuity errors : sum local = 109.027, global = 15.5616, cumulative = 14.2185
smoothSolver:  Solving for T, Initial residual = 0.00553335, Final residual = 4.99361e-05, No Iterations 66
ExecutionTime = 0.31 s  ClockTime = 0 s

Time = 17

GAMG:  Solving for p, Initial residual = 0.0567376, Final residual = 0.00344249, No Iterations 7
time step continuity errors : sum local = 57.6175, global = 8.06177, cumulative = 22.2803
smoothSolver:  Solving for T, Initial residual = 0.00635346, Final residual = 6.16242e-05, No Iterations 60
ExecutionTime = 0.33 s  ClockTime = 0 s

Time = 18

GAMG:  Solving for p, Initial residual = 0.0628973, Final residual = 0.00320672, No Iterations 7
time step continuity errors : sum local = 41.2145, global = 5.9184, cumulative = 28.1987
smoothSolver:  Solving for T, Initial residual = 0.00594831, Final residual = 5.63959e-05, No Iterations 62
ExecutionTime = 0.35 s  ClockTime = 0 s

Time = 19

GAMG:  Solving for p, Initial residual = 0.0899029, Final residual = 0.00711196, No Iterations 5
time step continuity errors : sum local = 63.2692, global = 2.89649, cumulative = 31.0952
smoothSolver:  Solving for T, Initial residual = 0.00534831, Final residual = 5.13767e-05, No Iterations 64
ExecutionTime = 0.37 s  ClockTime = 0 s

Time = 20

GAMG:  Solving for p, Initial residual = 0.131212, Final residual = 0.0100442, No Iterations 4
time step continuity errors : sum local = 60.2529, global = 21.4421, cumulative = 52.5373
smoothSolver:  Solving for T, Initial residual = 0.00436255, Final residual = 4.16221e-05, No Iterations 64
ExecutionTime = 0.39 s  ClockTime = 0 s

Time = 21

GAMG:  Solving for p, Initial residual = 0.131311, Final residual = 0.0128433, No Iterations 5
time step continuity errors : sum local = 67.2401, global = -16.2967, cumulative = 36.2406
smoothSolver:  Solving for T, Initial residual = 0.00481259, Final residual = 4.2659e-05, No Iterations 66
ExecutionTime = 0.4 s  ClockTime = 0 s

Time = 22

GAMG:  Solving for p, Initial residual = 0.115477, Final residual = 0.00828343, No Iterations 7
time step continuity errors : sum local = 39.882, global = -7.04087, cumulative = 29.1997
smoothSolver:  Solving for T, Initial residual = 0.00419282, Final residual = 3.98563e-05, No Iterations 68
ExecutionTime = 0.42 s  ClockTime = 0 s

Time = 23

GAMG:  Solving for p, Initial residual = 0.0930461, Final residual = 0.00922981, No Iterations 5
time step continuity errors : sum local = 45.2147, global = -4.00048, cumulative = 25.1992
smoothSolver:  Solving for T, Initial residual = 0.00388335, Final residual = 3.5635e-05, No Iterations 68
ExecutionTime = 0.43 s  ClockTime = 0 s

Time = 24

GAMG:  Solving for p, Initial residual = 0.0724556, Final residual = 0.00426387, No Iterations 5
time step continuity errors : sum local = 23.2837, global = 0.151218, cumulative = 25.3504
smoothSolver:  Solving for T, Initial residual = 0.00367749, Final residual = 3.4867e-05, No Iterations 68
ExecutionTime = 0.45 s  ClockTime = 0 s

Time = 25

GAMG:  Solving for p, Initial residual = 0.0555815, Final residual = 0.00425961, No Iterations 4
time step continuity errors : sum local = 26.8965, global = -12.8399, cumulative = 12.5105
smoothSolver:  Solving for T, Initial residual = 0.00378254, Final residual = 3.38473e-05, No Iterations 68
ExecutionTime = 0.47 s  ClockTime = 0 s

Time = 26

GAMG:  Solving for p, Initial residual = 0.0487017, Final residual = 0.00401853, No Iterations 6
time step continuity errors : sum local = 27.6285, global = -3.93679, cumulative = 8.57375
smoothSolver:  Solving for T, Initial residual = 0.00347698, Final residual = 3.19996e-05, No Iterations 68
ExecutionTime = 0.49 s  ClockTime = 0 s

Time = 27

GAMG:  Solving for p, Initial residual = 0.0409106, Final residual = 0.00402178, No Iterations 7
time step continuity errors : sum local = 30.0857, global = 10.445, cumulative = 19.0187
smoothSolver:  Solving for T, Initial residual = 0.00359101, Final residual = 3.1352e-05, No Iterations 68
ExecutionTime = 0.51 s  ClockTime = 0 s

Time = 28

GAMG:  Solving for p, Initial residual = 0.0333333, Final residual = 0.00304795, No Iterations 7
time step continuity errors : sum local = 23.6944, global = 7.64201, cumulative = 26.6607
smoothSolver:  Solving for T, Initial residual = 0.00351359, Final residual = 3.24703e-05, No Iterations 66
ExecutionTime = 0.52 s  ClockTime = 0 s

Time = 29

GAMG:  Solving for p, Initial residual = 0.028074, Final residual = 0.00128764, No Iterations 6
time step continuity errors : sum local = 10.157, global = 0.527636, cumulative = 27.1884
smoothSolver:  Solving for T, Initial residual = 0.00355962, Final residual = 3.50908e-05, No Iterations 64
ExecutionTime = 0.54 s  ClockTime = 0 s

Time = 30

GAMG:  Solving for p, Initial residual = 0.024005, Final residual = 0.00225253, No Iterations 4
time step continuity errors : sum local = 17.582, global = 2.08965, cumulative = 29.278
smoothSolver:  Solving for T, Initial residual = 0.00351301, Final residual = 3.42972e-05, No Iterations 66
ExecutionTime = 0.56 s  ClockTime = 0 s

Time = 31

GAMG:  Solving for p, Initial residual = 0.0217371, Final residual = 0.00184605, No Iterations 4
time step continuity errors : sum local = 13.9776, global = 1.70782, cumulative = 30.9859
smoothSolver:  Solving for T, Initial residual = 0.00351695, Final residual = 3.17542e-05, No Iterations 66
ExecutionTime = 0.58 s  ClockTime = 0 s

Time = 32

GAMG:  Solving for p, Initial residual = 0.0212535, Final residual = 0.00111655, No Iterations 6
time step continuity errors : sum local = 8.09438, global = 0.891065, cumulative = 31.8769
smoothSolver:  Solving for T, Initial residual = 0.00350401, Final residual = 3.28484e-05, No Iterations 66
ExecutionTime = 0.59 s  ClockTime = 0 s

Time = 33

GAMG:  Solving for p, Initial residual = 0.0217212, Final residual = 0.00157213, No Iterations 6
time step continuity errors : sum local = 10.7831, global = 1.83142, cumulative = 33.7083
smoothSolver:  Solving for T, Initial residual = 0.00338138, Final residual = 3.26398e-05, No Iterations 66
ExecutionTime = 0.62 s  ClockTime = 0 s

Time = 34

GAMG:  Solving for p, Initial residual = 0.0217706, Final residual = 0.00210929, No Iterations 6
time step continuity errors : sum local = 13.9048, global = 4.3454, cumulative = 38.0537
smoothSolver:  Solving for T, Initial residual = 0.00333298, Final residual = 3.23545e-05, No Iterations 66
ExecutionTime = 0.64 s  ClockTime = 0 s

Time = 35

GAMG:  Solving for p, Initial residual = 0.0209746, Final residual = 0.00197891, No Iterations 5
time step continuity errors : sum local = 12.8337, global = -2.52983, cumulative = 35.5239
smoothSolver:  Solving for T, Initial residual = 0.00332511, Final residual = 3.30139e-05, No Iterations 66
ExecutionTime = 0.65 s  ClockTime = 0 s

Time = 36

GAMG:  Solving for p, Initial residual = 0.0192842, Final residual = 0.000615287, No Iterations 5
time step continuity errors : sum local = 3.96085, global = -0.229661, cumulative = 35.2942
smoothSolver:  Solving for T, Initial residual = 0.00327583, Final residual = 2.96924e-05, No Iterations 68
ExecutionTime = 0.67 s  ClockTime = 0 s

Time = 37

GAMG:  Solving for p, Initial residual = 0.0175964, Final residual = 0.00160902, No Iterations 3
time step continuity errors : sum local = 10.3388, global = 0.745447, cumulative = 36.0397
smoothSolver:  Solving for T, Initial residual = 0.00323338, Final residual = 3.19105e-05, No Iterations 66
ExecutionTime = 0.69 s  ClockTime = 0 s

Time = 38

GAMG:  Solving for p, Initial residual = 0.0163511, Final residual = 0.00139674, No Iterations 3
time step continuity errors : sum local = 9.00027, global = 0.462063, cumulative = 36.5018
smoothSolver:  Solving for T, Initial residual = 0.00318217, Final residual = 2.83096e-05, No Iterations 68
ExecutionTime = 0.7 s  ClockTime = 0 s

Time = 39

GAMG:  Solving for p, Initial residual = 0.0158377, Final residual = 0.0015421, No Iterations 3
time step continuity errors : sum local = 10.0128, global = 0.0996099, cumulative = 36.6014
smoothSolver:  Solving for T, Initial residual = 0.00312865, Final residual = 3.12663e-05, No Iterations 66
ExecutionTime = 0.72 s  ClockTime = 0 s

Time = 40

GAMG:  Solving for p, Initial residual = 0.0153341, Final residual = 0.00144823, No Iterations 3
time step continuity errors : sum local = 9.52835, global = -0.115368, cumulative = 36.486
smoothSolver:  Solving for T, Initial residual = 0.0031029, Final residual = 3.07869e-05, No Iterations 66
ExecutionTime = 0.74 s  ClockTime = 1 s

Time = 41

GAMG:  Solving for p, Initial residual = 0.014742, Final residual = 0.000742558, No Iterations 5
time step continuity errors : sum local = 4.94198, global = 0.589245, cumulative = 37.0752
smoothSolver:  Solving for T, Initial residual = 0.00306962, Final residual = 3.01864e-05, No Iterations 66
ExecutionTime = 0.75 s  ClockTime = 1 s

Time = 42

GAMG:  Solving for p, Initial residual = 0.0138344, Final residual = 0.00126068, No Iterations 3
time step continuity errors : sum local = 8.4312, global = -0.488224, cumulative = 36.587
smoothSolver:  Solving for T, Initial residual = 0.00303456, Final residual = 2.67528e-05, No Iterations 68
ExecutionTime = 0.77 s  ClockTime = 1 s

Time = 43

GAMG:  Solving for p, Initial residual = 0.0129972, Final residual = 0.00126723, No Iterations 3
time step continuity errors : sum local = 8.46347, global = 0.389679, cumulative = 36.9767
smoothSolver:  Solving for T, Initial residual = 0.0029869, Final residual = 2.59462e-05, No Iterations 68
ExecutionTime = 0.78 s  ClockTime = 1 s

Time = 44

GAMG:  Solving for p, Initial residual = 0.0123539, Final residual = 0.000988087, No Iterations 3
time step continuity errors : sum local = 6.58383, global = 0.662939, cumulative = 37.6396
smoothSolver:  Solving for T, Initial residual = 0.00295463, Final residual = 2.57203e-05, No Iterations 68
ExecutionTime = 0.8 s  ClockTime = 1 s

Time = 45

GAMG:  Solving for p, Initial residual = 0.0119537, Final residual = 0.000944482, No Iterations 3
time step continuity errors : sum local = 6.26856, global = 1.27257, cumulative = 38.9122
smoothSolver:  Solving for T, Initial residual = 0.00291161, Final residual = 2.55452e-05, No Iterations 68
ExecutionTime = 0.81 s  ClockTime = 1 s

Time = 46

GAMG:  Solving for p, Initial residual = 0.0117959, Final residual = 0.000929416, No Iterations 3
time step continuity errors : sum local = 6.13693, global = 0.832531, cumulative = 39.7447
smoothSolver:  Solving for T, Initial residual = 0.00288158, Final residual = 2.57996e-05, No Iterations 68
ExecutionTime = 0.83 s  ClockTime = 1 s

Time = 47

GAMG:  Solving for p, Initial residual = 0.0116767, Final residual = 0.00104319, No Iterations 3
time step continuity errors : sum local = 6.83555, global = 0.784221, cumulative = 40.529
smoothSolver:  Solving for T, Initial residual = 0.0028528, Final residual = 2.61367e-05, No Iterations 68
ExecutionTime = 0.85 s  ClockTime = 1 s

Time = 48

GAMG:  Solving for p, Initial residual = 0.0115155, Final residual = 0.000986652, No Iterations 3
time step continuity errors : sum local = 6.40154, global = 0.717872, cumulative = 41.2468
smoothSolver:  Solving for T, Initial residual = 0.00280663, Final residual = 2.62501e-05, No Iterations 68
ExecutionTime = 0.86 s  ClockTime = 1 s

Time = 49

GAMG:  Solving for p, Initial residual = 0.0112681, Final residual = 0.000850049, No Iterations 3
time step continuity errors : sum local = 5.46485, global = 0.739869, cumulative = 41.9867
smoothSolver:  Solving for T, Initial residual = 0.00275634, Final residual = 2.61972e-05, No Iterations 68
ExecutionTime = 0.88 s  ClockTime = 1 s

Time = 50

GAMG:  Solving for p, Initial residual = 0.0109452, Final residual = 0.000571415, No Iterations 4
time step continuity errors : sum local = 3.65005, global = -0.409321, cumulative = 41.5774
smoothSolver:  Solving for T, Initial residual = 0.00273327, Final residual = 2.6545e-05, No Iterations 68
ExecutionTime = 0.89 s  ClockTime = 1 s

Time = 51

GAMG:  Solving for p, Initial residual = 0.0106177, Final residual = 0.000766952, No Iterations 3
time step continuity errors : sum local = 4.86899, global = 0.65138, cumulative = 42.2288
smoothSolver:  Solving for T, Initial residual = 0.00267623, Final residual = 2.62944e-05, No Iterations 68
ExecutionTime = 0.91 s  ClockTime = 1 s

Time = 52

GAMG:  Solving for p, Initial residual = 0.010322, Final residual = 0.000529808, No Iterations 3
time step continuity errors : sum local = 3.35311, global = 0.489054, cumulative = 42.7178
smoothSolver:  Solving for T, Initial residual = 0.00264197, Final residual = 2.33741e-05, No Iterations 70
ExecutionTime = 0.92 s  ClockTime = 1 s

Time = 53

GAMG:  Solving for p, Initial residual = 0.0101751, Final residual = 0.00077739, No Iterations 3
time step continuity errors : sum local = 4.91002, global = 0.752013, cumulative = 43.4698
smoothSolver:  Solving for T, Initial residual = 0.00259912, Final residual = 2.3245e-05, No Iterations 70
ExecutionTime = 0.95 s  ClockTime = 1 s

Time = 54

GAMG:  Solving for p, Initial residual = 0.010073, Final residual = 0.000545296, No Iterations 4
time step continuity errors : sum local = 3.4398, global = -0.588391, cumulative = 42.8814
smoothSolver:  Solving for T, Initial residual = 0.00255557, Final residual = 2.29687e-05, No Iterations 70
ExecutionTime = 0.97 s  ClockTime = 1 s

Time = 55

GAMG:  Solving for p, Initial residual = 0.0100172, Final residual = 0.000622679, No Iterations 4
time step continuity errors : sum local = 3.9257, global = -0.836783, cumulative = 42.0447
smoothSolver:  Solving for T, Initial residual = 0.00251366, Final residual = 2.30234e-05, No Iterations 70
ExecutionTime = 0.99 s  ClockTime = 1 s

Time = 56

GAMG:  Solving for p, Initial residual = 0.00991708, Final residual = 0.00062431, No Iterations 4
time step continuity errors : sum local = 3.93518, global = -0.908949, cumulative = 41.1357
smoothSolver:  Solving for T, Initial residual = 0.00246765, Final residual = 2.29155e-05, No Iterations 70
ExecutionTime = 1 s  ClockTime = 1 s

Time = 57

GAMG:  Solving for p, Initial residual = 0.00974218, Final residual = 0.000913786, No Iterations 3
time step continuity errors : sum local = 5.75966, global = 1.26074, cumulative = 42.3965
smoothSolver:  Solving for T, Initial residual = 0.00242597, Final residual = 2.28889e-05, No Iterations 70
ExecutionTime = 1.01 s  ClockTime = 1 s

Time = 58

GAMG:  Solving for p, Initial residual = 0.00941119, Final residual = 0.000889429, No Iterations 3
time step continuity errors : sum local = 5.60626, global = 1.04862, cumulative = 43.4451
smoothSolver:  Solving for T, Initial residual = 0.0023844, Final residual = 2.25712e-05, No Iterations 70
ExecutionTime = 1.03 s  ClockTime = 1 s

Time = 59

GAMG:  Solving for p, Initial residual = 0.00912283, Final residual = 0.00073217, No Iterations 3
time step continuity errors : sum local = 4.61372, global = 0.578126, cumulative = 44.0232
smoothSolver:  Solving for T, Initial residual = 0.002346, Final residual = 2.25024e-05, No Iterations 70
ExecutionTime = 1.05 s  ClockTime = 1 s

Time = 60

GAMG:  Solving for p, Initial residual = 0.00889182, Final residual = 0.000519125, No Iterations 3
time step continuity errors : sum local = 3.26741, global = 0.361103, cumulative = 44.3843
smoothSolver:  Solving for T, Initial residual = 0.00230355, Final residual = 2.24132e-05, No Iterations 70
ExecutionTime = 1.06 s  ClockTime = 1 s

Time = 61

GAMG:  Solving for p, Initial residual = 0.00868843, Final residual = 0.000471771, No Iterations 3
time step continuity errors : sum local = 2.96388, global = 0.457271, cumulative = 44.8416
smoothSolver:  Solving for T, Initial residual = 0.00226744, Final residual = 2.22856e-05, No Iterations 70
ExecutionTime = 1.08 s  ClockTime = 1 s

Time = 62

GAMG:  Solving for p, Initial residual = 0.00855215, Final residual = 0.000550138, No Iterations 3
time step continuity errors : sum local = 3.44909, global = 0.577196, cumulative = 45.4188
smoothSolver:  Solving for T, Initial residual = 0.00223311, Final residual = 2.22811e-05, No Iterations 70
ExecutionTime = 1.09 s  ClockTime = 1 s

Time = 63

GAMG:  Solving for p, Initial residual = 0.00848019, Final residual = 0.000625964, No Iterations 3
time step continuity errors : sum local = 3.91489, global = 0.764642, cumulative = 46.1834
smoothSolver:  Solving for T, Initial residual = 0.00219755, Final residual = 2.02603e-05, No Iterations 72
ExecutionTime = 1.11 s  ClockTime = 1 s

Time = 64

GAMG:  Solving for p, Initial residual = 0.00838746, Final residual = 0.000637661, No Iterations 3
time step continuity errors : sum local = 3.97673, global = 0.87926, cumulative = 47.0627
smoothSolver:  Solving for T, Initial residual = 0.00216144, Final residual = 2.0251e-05, No Iterations 72
ExecutionTime = 1.13 s  ClockTime = 1 s

Time = 65

GAMG:  Solving for p, Initial residual = 0.00827229, Final residual = 0.000604489, No Iterations 3
time step continuity errors : sum local = 3.75741, global = 0.878915, cumulative = 47.9416
smoothSolver:  Solving for T, Initial residual = 0.00212801, Final residual = 2.021e-05, No Iterations 72
ExecutionTime = 1.15 s  ClockTime = 1 s

Time = 66

GAMG:  Solving for p, Initial residual = 0.00815237, Final residual = 0.000564908, No Iterations 3
time step continuity errors : sum local = 3.49833, global = 0.837357, cumulative = 48.7789
smoothSolver:  Solving for T, Initial residual = 0.00209406, Final residual = 2.02118e-05, No Iterations 72
ExecutionTime = 1.16 s  ClockTime = 1 s

Time = 67

GAMG:  Solving for p, Initial residual = 0.0080226, Final residual = 0.000536872, No Iterations 3
time step continuity errors : sum local = 3.31141, global = 0.816348, cumulative = 49.5953
smoothSolver:  Solving for T, Initial residual = 0.00206, Final residual = 2.02694e-05, No Iterations 72
ExecutionTime = 1.18 s  ClockTime = 1 s

Time = 68

GAMG:  Solving for p, Initial residual = 0.00789548, Final residual = 0.000518752, No Iterations 3
time step continuity errors : sum local = 3.18671, global = 0.807753, cumulative = 50.403
smoothSolver:  Solving for T, Initial residual = 0.00203039, Final residual = 1.8802e-05, No Iterations 74
ExecutionTime = 1.19 s  ClockTime = 1 s

Time = 69

GAMG:  Solving for p, Initial residual = 0.00777911, Final residual = 0.000506858, No Iterations 3
time step continuity errors : sum local = 3.10161, global = 0.784174, cumulative = 51.1872
smoothSolver:  Solving for T, Initial residual = 0.00199933, Final residual = 1.88585e-05, No Iterations 74
ExecutionTime = 1.21 s  ClockTime = 1 s

Time = 70

GAMG:  Solving for p, Initial residual = 0.00766729, Final residual = 0.000476198, No Iterations 3
time step continuity errors : sum local = 2.90347, global = 0.723173, cumulative = 51.9104
smoothSolver:  Solving for T, Initial residual = 0.00196798, Final residual = 1.89242e-05, No Iterations 74
ExecutionTime = 1.22 s  ClockTime = 1 s

Time = 71

GAMG:  Solving for p, Initial residual = 0.00756346, Final residual = 0.000433016, No Iterations 3
time step continuity errors : sum local = 2.63141, global = 0.663115, cumulative = 52.5735
smoothSolver:  Solving for T, Initial residual = 0.00193618, Final residual = 1.90126e-05, No Iterations 74
ExecutionTime = 1.24 s  ClockTime = 1 s

Time = 72

GAMG:  Solving for p, Initial residual = 0.00747626, Final residual = 0.000429305, No Iterations 3
time step continuity errors : sum local = 2.60112, global = 0.63153, cumulative = 53.205
smoothSolver:  Solving for T, Initial residual = 0.00190452, Final residual = 1.78025e-05, No Iterations 76
ExecutionTime = 1.26 s  ClockTime = 1 s

Time = 73

GAMG:  Solving for p, Initial residual = 0.00740712, Final residual = 0.000454734, No Iterations 3
time step continuity errors : sum local = 2.74787, global = 0.617049, cumulative = 53.8221
smoothSolver:  Solving for T, Initial residual = 0.00187566, Final residual = 1.78451e-05, No Iterations 76
ExecutionTime = 1.28 s  ClockTime = 1 s

Time = 74

GAMG:  Solving for p, Initial residual = 0.00733561, Final residual = 0.00049477, No Iterations 3
time step continuity errors : sum local = 2.98253, global = 0.619441, cumulative = 54.4415
smoothSolver:  Solving for T, Initial residual = 0.00184809, Final residual = 1.79433e-05, No Iterations 76
ExecutionTime = 1.29 s  ClockTime = 1 s

Time = 75

GAMG:  Solving for p, Initial residual = 0.00726255, Final residual = 0.000526341, No Iterations 3
time step continuity errors : sum local = 3.1657, global = 0.600155, cumulative = 55.0417
smoothSolver:  Solving for T, Initial residual = 0.00182053, Final residual = 1.7967e-05, No Iterations 76
ExecutionTime = 1.31 s  ClockTime = 1 s

Time = 76

GAMG:  Solving for p, Initial residual = 0.00718825, Final residual = 0.000539307, No Iterations 3
time step continuity errors : sum local = 3.23662, global = 0.586279, cumulative = 55.628
smoothSolver:  Solving for T, Initial residual = 0.00179197, Final residual = 1.65756e-05, No Iterations 78
ExecutionTime = 1.33 s  ClockTime = 1 s

Time = 77

GAMG:  Solving for p, Initial residual = 0.0070994, Final residual = 0.000546626, No Iterations 3
time step continuity errors : sum local = 3.27388, global = 0.562287, cumulative = 56.1903
smoothSolver:  Solving for T, Initial residual = 0.00176444, Final residual = 1.65819e-05, No Iterations 78
ExecutionTime = 1.34 s  ClockTime = 1 s

Time = 78

GAMG:  Solving for p, Initial residual = 0.00698666, Final residual = 0.000539656, No Iterations 3
time step continuity errors : sum local = 3.22586, global = 0.532496, cumulative = 56.7227
smoothSolver:  Solving for T, Initial residual = 0.00173637, Final residual = 1.65412e-05, No Iterations 78
ExecutionTime = 1.36 s  ClockTime = 1 s

Time = 79

GAMG:  Solving for p, Initial residual = 0.0068749, Final residual = 0.000517937, No Iterations 3
time step continuity errors : sum local = 3.09025, global = 0.500139, cumulative = 57.2229
smoothSolver:  Solving for T, Initial residual = 0.00171071, Final residual = 1.65681e-05, No Iterations 78
ExecutionTime = 1.38 s  ClockTime = 1 s

Time = 80

GAMG:  Solving for p, Initial residual = 0.00676853, Final residual = 0.000485699, No Iterations 3
time step continuity errors : sum local = 2.89259, global = 0.470838, cumulative = 57.6937
smoothSolver:  Solving for T, Initial residual = 0.00168609, Final residual = 1.65874e-05, No Iterations 78
ExecutionTime = 1.4 s  ClockTime = 1 s

Time = 81

GAMG:  Solving for p, Initial residual = 0.00667325, Final residual = 0.000450713, No Iterations 3
time step continuity errors : sum local = 2.67927, global = 0.453, cumulative = 58.1467
smoothSolver:  Solving for T, Initial residual = 0.00165843, Final residual = 1.52802e-05, No Iterations 80
ExecutionTime = 1.42 s  ClockTime = 1 s

Time = 82

GAMG:  Solving for p, Initial residual = 0.00660246, Final residual = 0.000424047, No Iterations 3
time step continuity errors : sum local = 2.516, global = 0.440013, cumulative = 58.5867
smoothSolver:  Solving for T, Initial residual = 0.0016333, Final residual = 1.53206e-05, No Iterations 80
ExecutionTime = 1.44 s  ClockTime = 1 s

Time = 83

GAMG:  Solving for p, Initial residual = 0.00654729, Final residual = 0.000406713, No Iterations 3
time step continuity errors : sum local = 2.40834, global = 0.44748, cumulative = 59.0342
smoothSolver:  Solving for T, Initial residual = 0.00160772, Final residual = 1.53937e-05, No Iterations 80
ExecutionTime = 1.46 s  ClockTime = 1 s

Time = 84

GAMG:  Solving for p, Initial residual = 0.00649896, Final residual = 0.000410817, No Iterations 3
time step continuity errors : sum local = 2.42764, global = 0.462848, cumulative = 59.4971
smoothSolver:  Solving for T, Initial residual = 0.00158226, Final residual = 1.55263e-05, No Iterations 80
ExecutionTime = 1.47 s  ClockTime = 1 s

Time = 85

GAMG:  Solving for p, Initial residual = 0.00644184, Final residual = 0.000423631, No Iterations 3
time step continuity errors : sum local = 2.49796, global = 0.48063, cumulative = 59.9777
smoothSolver:  Solving for T, Initial residual = 0.00155794, Final residual = 1.43905e-05, No Iterations 82
ExecutionTime = 1.49 s  ClockTime = 1 s

Time = 86

GAMG:  Solving for p, Initial residual = 0.00637564, Final residual = 0.000431202, No Iterations 3
time step continuity errors : sum local = 2.53686, global = 0.500827, cumulative = 60.4785
smoothSolver:  Solving for T, Initial residual = 0.00153312, Final residual = 1.44785e-05, No Iterations 82
ExecutionTime = 1.51 s  ClockTime = 1 s

Time = 87

GAMG:  Solving for p, Initial residual = 0.00631999, Final residual = 0.000432626, No Iterations 3
time step continuity errors : sum local = 2.53935, global = 0.515885, cumulative = 60.9944
smoothSolver:  Solving for T, Initial residual = 0.00151033, Final residual = 1.46138e-05, No Iterations 82
ExecutionTime = 1.53 s  ClockTime = 1 s

Time = 88

GAMG:  Solving for p, Initial residual = 0.00626989, Final residual = 0.000427244, No Iterations 3
time step continuity errors : sum local = 2.50172, global = 0.523013, cumulative = 61.5174
smoothSolver:  Solving for T, Initial residual = 0.0014881, Final residual = 1.48037e-05, No Iterations 82
ExecutionTime = 1.55 s  ClockTime = 1 s

Time = 89

GAMG:  Solving for p, Initial residual = 0.00622372, Final residual = 0.000415668, No Iterations 3
time step continuity errors : sum local = 2.42794, global = 0.520901, cumulative = 62.0383
smoothSolver:  Solving for T, Initial residual = 0.00146581, Final residual = 1.3782e-05, No Iterations 84
ExecutionTime = 1.57 s  ClockTime = 1 s

Time = 90

GAMG:  Solving for p, Initial residual = 0.00618043, Final residual = 0.000399597, No Iterations 3
time step continuity errors : sum local = 2.32824, global = 0.51079, cumulative = 62.5491
smoothSolver:  Solving for T, Initial residual = 0.00144295, Final residual = 1.39241e-05, No Iterations 84
ExecutionTime = 1.58 s  ClockTime = 1 s

Time = 91

GAMG:  Solving for p, Initial residual = 0.00612322, Final residual = 0.000381774, No Iterations 3
time step continuity errors : sum local = 2.21877, global = 0.495209, cumulative = 63.0443
smoothSolver:  Solving for T, Initial residual = 0.00142079, Final residual = 1.4089e-05, No Iterations 84
ExecutionTime = 1.6 s  ClockTime = 1 s

Time = 92

GAMG:  Solving for p, Initial residual = 0.00604881, Final residual = 0.000363389, No Iterations 3
time step continuity errors : sum local = 2.10659, global = 0.475264, cumulative = 63.5196
smoothSolver:  Solving for T, Initial residual = 0.0013992, Final residual = 1.30098e-05, No Iterations 86
ExecutionTime = 1.62 s  ClockTime = 1 s

Time = 93

GAMG:  Solving for p, Initial residual = 0.00597228, Final residual = 0.000345235, No Iterations 3
time step continuity errors : sum local = 1.99639, global = 0.449759, cumulative = 63.9693
smoothSolver:  Solving for T, Initial residual = 0.00137782, Final residual = 1.3131e-05, No Iterations 86
ExecutionTime = 1.64 s  ClockTime = 1 s

Time = 94

GAMG:  Solving for p, Initial residual = 0.00590382, Final residual = 0.000329955, No Iterations 3
time step continuity errors : sum local = 1.90342, global = 0.417482, cumulative = 64.3868
smoothSolver:  Solving for T, Initial residual = 0.00135966, Final residual = 1.33448e-05, No Iterations 86
ExecutionTime = 1.66 s  ClockTime = 1 s

Time = 95

GAMG:  Solving for p, Initial residual = 0.00584937, Final residual = 0.000318641, No Iterations 3
time step continuity errors : sum local = 1.83388, global = 0.377941, cumulative = 64.7648
smoothSolver:  Solving for T, Initial residual = 0.00133896, Final residual = 1.23944e-05, No Iterations 88
ExecutionTime = 1.68 s  ClockTime = 1 s

Time = 96

GAMG:  Solving for p, Initial residual = 0.00579917, Final residual = 0.000310366, No Iterations 3
time step continuity errors : sum local = 1.78226, global = 0.33344, cumulative = 65.0982
smoothSolver:  Solving for T, Initial residual = 0.00131778, Final residual = 1.25858e-05, No Iterations 88
ExecutionTime = 1.69 s  ClockTime = 1 s

Time = 97

GAMG:  Solving for p, Initial residual = 0.00574682, Final residual = 0.000314173, No Iterations 3
time step continuity errors : sum local = 1.80033, global = 0.280926, cumulative = 65.3791
smoothSolver:  Solving for T, Initial residual = 0.00129837, Final residual = 1.27826e-05, No Iterations 88
ExecutionTime = 1.71 s  ClockTime = 1 s

Time = 98

GAMG:  Solving for p, Initial residual = 0.00569421, Final residual = 0.000325194, No Iterations 3
time step continuity errors : sum local = 1.85982, global = 0.243006, cumulative = 65.6221
smoothSolver:  Solving for T, Initial residual = 0.00127838, Final residual = 1.18312e-05, No Iterations 90
ExecutionTime = 1.73 s  ClockTime = 2 s

Time = 99

GAMG:  Solving for p, Initial residual = 0.00564305, Final residual = 0.000341675, No Iterations 3
time step continuity errors : sum local = 1.95066, global = 0.201467, cumulative = 65.8236
smoothSolver:  Solving for T, Initial residual = 0.00125827, Final residual = 1.20442e-05, No Iterations 90
ExecutionTime = 1.75 s  ClockTime = 2 s

Time = 100

GAMG:  Solving for p, Initial residual = 0.00558266, Final residual = 0.000356977, No Iterations 3
time step continuity errors : sum local = 2.03486, global = 0.168227, cumulative = 65.9918
smoothSolver:  Solving for T, Initial residual = 0.00123834, Final residual = 1.22791e-05, No Iterations 90
ExecutionTime = 1.77 s  ClockTime = 2 s

Time = 101

GAMG:  Solving for p, Initial residual = 0.00551324, Final residual = 0.000380608, No Iterations 3
time step continuity errors : sum local = 2.16676, global = 0.137516, cumulative = 66.1293
smoothSolver:  Solving for T, Initial residual = 0.00121922, Final residual = 1.13909e-05, No Iterations 92
ExecutionTime = 1.79 s  ClockTime = 2 s

Time = 102

GAMG:  Solving for p, Initial residual = 0.00543027, Final residual = 0.000399879, No Iterations 3
time step continuity errors : sum local = 2.27399, global = 0.105428, cumulative = 66.2348
smoothSolver:  Solving for T, Initial residual = 0.00120173, Final residual = 1.16049e-05, No Iterations 92
ExecutionTime = 1.8 s  ClockTime = 2 s

Time = 103

GAMG:  Solving for p, Initial residual = 0.00534951, Final residual = 0.000404995, No Iterations 3
time step continuity errors : sum local = 2.30099, global = 0.0675386, cumulative = 66.3023
smoothSolver:  Solving for T, Initial residual = 0.00118361, Final residual = 1.07822e-05, No Iterations 94
ExecutionTime = 1.82 s  ClockTime = 2 s

Time = 104

GAMG:  Solving for p, Initial residual = 0.0052796, Final residual = 0.000390909, No Iterations 3
time step continuity errors : sum local = 2.21923, global = 0.0244838, cumulative = 66.3268
smoothSolver:  Solving for T, Initial residual = 0.00116543, Final residual = 1.10071e-05, No Iterations 94
ExecutionTime = 1.84 s  ClockTime = 2 s

Time = 105

GAMG:  Solving for p, Initial residual = 0.00520675, Final residual = 0.000363287, No Iterations 3
time step continuity errors : sum local = 2.06092, global = -0.0177081, cumulative = 66.3091
smoothSolver:  Solving for T, Initial residual = 0.00114758, Final residual = 1.12612e-05, No Iterations 94
ExecutionTime = 1.86 s  ClockTime = 2 s

Time = 106

GAMG:  Solving for p, Initial residual = 0.00512279, Final residual = 0.000335801, No Iterations 3
time step continuity errors : sum local = 1.90356, global = -0.0558224, cumulative = 66.2533
smoothSolver:  Solving for T, Initial residual = 0.0011315, Final residual = 1.04567e-05, No Iterations 96
ExecutionTime = 1.88 s  ClockTime = 2 s

Time = 107

GAMG:  Solving for p, Initial residual = 0.00505178, Final residual = 0.000316778, No Iterations 3
time step continuity errors : sum local = 1.79432, global = -0.0889528, cumulative = 66.1643
smoothSolver:  Solving for T, Initial residual = 0.00111674, Final residual = 1.06738e-05, No Iterations 96
ExecutionTime = 1.9 s  ClockTime = 2 s

Time = 108

GAMG:  Solving for p, Initial residual = 0.00496952, Final residual = 0.000305482, No Iterations 3
time step continuity errors : sum local = 1.7289, global = -0.122747, cumulative = 66.0416
smoothSolver:  Solving for T, Initial residual = 0.00110238, Final residual = 1.08641e-05, No Iterations 96
ExecutionTime = 1.92 s  ClockTime = 2 s

Time = 109

GAMG:  Solving for p, Initial residual = 0.0048805, Final residual = 0.000303568, No Iterations 3
time step continuity errors : sum local = 1.71657, global = -0.157579, cumulative = 65.884
smoothSolver:  Solving for T, Initial residual = 0.00108756, Final residual = 1.00649e-05, No Iterations 98
ExecutionTime = 1.94 s  ClockTime = 2 s

Time = 110

GAMG:  Solving for p, Initial residual = 0.0047921, Final residual = 0.000297708, No Iterations 3
time step continuity errors : sum local = 1.68198, global = -0.198273, cumulative = 65.6857
smoothSolver:  Solving for T, Initial residual = 0.00107573, Final residual = 1.02645e-05, No Iterations 98
ExecutionTime = 1.96 s  ClockTime = 2 s

Time = 111

GAMG:  Solving for p, Initial residual = 0.00470205, Final residual = 0.000295189, No Iterations 3
time step continuity errors : sum local = 1.66644, global = -0.239378, cumulative = 65.4463
smoothSolver:  Solving for T, Initial residual = 0.00106249, Final residual = 1.04969e-05, No Iterations 98
ExecutionTime = 1.98 s  ClockTime = 2 s

Time = 112

GAMG:  Solving for p, Initial residual = 0.00461668, Final residual = 0.000290678, No Iterations 3
time step continuity errors : sum local = 1.63975, global = -0.278863, cumulative = 65.1675
smoothSolver:  Solving for T, Initial residual = 0.00105027, Final residual = 9.76637e-06, No Iterations 100
ExecutionTime = 2 s  ClockTime = 2 s

Time = 113

GAMG:  Solving for p, Initial residual = 0.0045357, Final residual = 0.000276, No Iterations 3
time step continuity errors : sum local = 1.55584, global = -0.31006, cumulative = 64.8574
smoothSolver:  Solving for T, Initial residual = 0.00104001, Final residual = 1.00071e-05, No Iterations 100
ExecutionTime = 2.02 s  ClockTime = 2 s

Time = 114

GAMG:  Solving for p, Initial residual = 0.00447225, Final residual = 0.000266451, No Iterations 3
time step continuity errors : sum local = 1.50098, global = -0.349537, cumulative = 64.5079
smoothSolver:  Solving for T, Initial residual = 0.00102946, Final residual = 1.02529e-05, No Iterations 100
ExecutionTime = 2.04 s  ClockTime = 2 s

Time = 115

GAMG:  Solving for p, Initial residual = 0.00441271, Final residual = 0.000253787, No Iterations 3
time step continuity errors : sum local = 1.42882, global = -0.388157, cumulative = 64.1197
smoothSolver:  Solving for T, Initial residual = 0.00101837, Final residual = 9.52359e-06, No Iterations 102
ExecutionTime = 2.06 s  ClockTime = 2 s

Time = 116

GAMG:  Solving for p, Initial residual = 0.00434424, Final residual = 0.000239087, No Iterations 3
time step continuity errors : sum local = 1.34542, global = -0.418565, cumulative = 63.7012
smoothSolver:  Solving for T, Initial residual = 0.00100763, Final residual = 9.74429e-06, No Iterations 102
ExecutionTime = 2.08 s  ClockTime = 2 s

Time = 117

GAMG:  Solving for p, Initial residual = 0.00427286, Final residual = 0.000225476, No Iterations 3
time step continuity errors : sum local = 1.26838, global = -0.437309, cumulative = 63.2638
smoothSolver:  Solving for T, Initial residual = 0.000996637, Final residual = 9.98595e-06, No Iterations 102
ExecutionTime = 2.09 s  ClockTime = 2 s

Time = 118

GAMG:  Solving for p, Initial residual = 0.00420348, Final residual = 0.000215749, No Iterations 3
time step continuity errors : sum local = 1.21339, global = -0.445947, cumulative = 62.8179
smoothSolver:  Solving for T, Initial residual = 0.00098438, Final residual = 9.29494e-06, No Iterations 104
ExecutionTime = 2.12 s  ClockTime = 2 s

Time = 119

GAMG:  Solving for p, Initial residual = 0.00414318, Final residual = 0.000211559, No Iterations 3
time step continuity errors : sum local = 1.18971, global = -0.446953, cumulative = 62.3709
smoothSolver:  Solving for T, Initial residual = 0.000977638, Final residual = 9.51825e-06, No Iterations 104
ExecutionTime = 2.14 s  ClockTime = 2 s

Time = 120

GAMG:  Solving for p, Initial residual = 0.00408443, Final residual = 0.000209667, No Iterations 3
time step continuity errors : sum local = 1.17907, global = -0.444565, cumulative = 61.9264
smoothSolver:  Solving for T, Initial residual = 0.000968009, Final residual = 9.74729e-06, No Iterations 104
ExecutionTime = 2.16 s  ClockTime = 2 s

Time = 121

GAMG:  Solving for p, Initial residual = 0.00402976, Final residual = 0.000209382, No Iterations 3
time step continuity errors : sum local = 1.1776, global = -0.440641, cumulative = 61.4857
smoothSolver:  Solving for T, Initial residual = 0.000960202, Final residual = 9.98281e-06, No Iterations 104
ExecutionTime = 2.18 s  ClockTime = 2 s

Time = 122

GAMG:  Solving for p, Initial residual = 0.00397479, Final residual = 0.000209335, No Iterations 3
time step continuity errors : sum local = 1.17754, global = -0.43587, cumulative = 61.0499
smoothSolver:  Solving for T, Initial residual = 0.000951987, Final residual = 9.34254e-06, No Iterations 106
ExecutionTime = 2.2 s  ClockTime = 2 s

Time = 123

GAMG:  Solving for p, Initial residual = 0.00391917, Final residual = 0.000209191, No Iterations 3
time step continuity errors : sum local = 1.17702, global = -0.430851, cumulative = 60.619
smoothSolver:  Solving for T, Initial residual = 0.000943032, Final residual = 9.57928e-06, No Iterations 106
ExecutionTime = 2.22 s  ClockTime = 2 s

Time = 124

GAMG:  Solving for p, Initial residual = 0.00385763, Final residual = 0.000208676, No Iterations 3
time step continuity errors : sum local = 1.17451, global = -0.425768, cumulative = 60.1933
smoothSolver:  Solving for T, Initial residual = 0.000934226, Final residual = 9.77608e-06, No Iterations 106
ExecutionTime = 2.24 s  ClockTime = 2 s

Time = 125

GAMG:  Solving for p, Initial residual = 0.00378754, Final residual = 0.000207522, No Iterations 3
time step continuity errors : sum local = 1.16849, global = -0.420548, cumulative = 59.7727
smoothSolver:  Solving for T, Initial residual = 0.000926585, Final residual = 9.96512e-06, No Iterations 106
ExecutionTime = 2.26 s  ClockTime = 2 s

Time = 126

GAMG:  Solving for p, Initial residual = 0.00371931, Final residual = 0.000205577, No Iterations 3
time step continuity errors : sum local = 1.15808, global = -0.415887, cumulative = 59.3568
smoothSolver:  Solving for T, Initial residual = 0.000919065, Final residual = 9.24243e-06, No Iterations 108
ExecutionTime = 2.29 s  ClockTime = 2 s

Time = 127

GAMG:  Solving for p, Initial residual = 0.00365983, Final residual = 0.000203124, No Iterations 3
time step continuity errors : sum local = 1.14484, global = -0.411158, cumulative = 58.9457
smoothSolver:  Solving for T, Initial residual = 0.000907576, Final residual = 9.45332e-06, No Iterations 108
ExecutionTime = 2.31 s  ClockTime = 2 s

Time = 128

GAMG:  Solving for p, Initial residual = 0.00360019, Final residual = 0.000200216, No Iterations 3
time step continuity errors : sum local = 1.12906, global = -0.406486, cumulative = 58.5392
smoothSolver:  Solving for T, Initial residual = 0.000902849, Final residual = 9.65192e-06, No Iterations 108
ExecutionTime = 2.34 s  ClockTime = 2 s

Time = 129

GAMG:  Solving for p, Initial residual = 0.00354459, Final residual = 0.000197002, No Iterations 3
time step continuity errors : sum local = 1.11154, global = -0.401803, cumulative = 58.1374
smoothSolver:  Solving for T, Initial residual = 0.000896875, Final residual = 9.83513e-06, No Iterations 108
ExecutionTime = 2.36 s  ClockTime = 2 s

Time = 130

GAMG:  Solving for p, Initial residual = 0.00349309, Final residual = 0.000193463, No Iterations 3
time step continuity errors : sum local = 1.09218, global = -0.397103, cumulative = 57.7403
smoothSolver:  Solving for T, Initial residual = 0.000891119, Final residual = 9.18311e-06, No Iterations 110
ExecutionTime = 2.39 s  ClockTime = 2 s

Time = 131

GAMG:  Solving for p, Initial residual = 0.0034481, Final residual = 0.000189571, No Iterations 3
time step continuity errors : sum local = 1.07079, global = -0.391988, cumulative = 57.3483
smoothSolver:  Solving for T, Initial residual = 0.000884216, Final residual = 9.37887e-06, No Iterations 110
ExecutionTime = 2.41 s  ClockTime = 2 s

Time = 132

GAMG:  Solving for p, Initial residual = 0.00340344, Final residual = 0.000185344, No Iterations 3
time step continuity errors : sum local = 1.04748, global = -0.386352, cumulative = 56.9619
smoothSolver:  Solving for T, Initial residual = 0.000877776, Final residual = 9.57651e-06, No Iterations 110
ExecutionTime = 2.43 s  ClockTime = 2 s

Time = 133

GAMG:  Solving for p, Initial residual = 0.00336076, Final residual = 0.000180783, No Iterations 3
time step continuity errors : sum local = 1.02227, global = -0.380288, cumulative = 56.5816
smoothSolver:  Solving for T, Initial residual = 0.00087073, Final residual = 9.77503e-06, No Iterations 110
ExecutionTime = 2.46 s  ClockTime = 2 s

Time = 134

GAMG:  Solving for p, Initial residual = 0.00332014, Final residual = 0.000176181, No Iterations 3
time step continuity errors : sum local = 0.996782, global = -0.374182, cumulative = 56.2075
smoothSolver:  Solving for T, Initial residual = 0.000862062, Final residual = 9.96801e-06, No Iterations 110
ExecutionTime = 2.48 s  ClockTime = 2 s

Time = 135

GAMG:  Solving for p, Initial residual = 0.00327627, Final residual = 0.00017142, No Iterations 3
time step continuity errors : sum local = 0.970389, global = -0.367796, cumulative = 55.8397
smoothSolver:  Solving for T, Initial residual = 0.000855646, Final residual = 9.35694e-06, No Iterations 112
ExecutionTime = 2.51 s  ClockTime = 2 s

Time = 136

GAMG:  Solving for p, Initial residual = 0.00322859, Final residual = 0.000166553, No Iterations 3
time step continuity errors : sum local = 0.943381, global = -0.361202, cumulative = 55.4785
smoothSolver:  Solving for T, Initial residual = 0.00084928, Final residual = 9.56398e-06, No Iterations 112
ExecutionTime = 2.53 s  ClockTime = 2 s

Time = 137

GAMG:  Solving for p, Initial residual = 0.0031905, Final residual = 0.000161916, No Iterations 3
time step continuity errors : sum local = 0.917628, global = -0.354298, cumulative = 55.1242
smoothSolver:  Solving for T, Initial residual = 0.000844532, Final residual = 9.75877e-06, No Iterations 112
ExecutionTime = 2.55 s  ClockTime = 2 s

Time = 138

GAMG:  Solving for p, Initial residual = 0.00316264, Final residual = 0.000157368, No Iterations 3
time step continuity errors : sum local = 0.892341, global = -0.347302, cumulative = 54.7769
smoothSolver:  Solving for T, Initial residual = 0.000839221, Final residual = 9.93642e-06, No Iterations 112
ExecutionTime = 2.57 s  ClockTime = 2 s

Time = 139

GAMG:  Solving for p, Initial residual = 0.0031263, Final residual = 0.00015241, No Iterations 3
time step continuity errors : sum local = 0.864722, global = -0.33892, cumulative = 54.4379
smoothSolver:  Solving for T, Initial residual = 0.000833966, Final residual = 9.33572e-06, No Iterations 114
ExecutionTime = 2.59 s  ClockTime = 2 s

Time = 140

GAMG:  Solving for p, Initial residual = 0.00308808, Final residual = 0.000147968, No Iterations 3
time step continuity errors : sum local = 0.840035, global = -0.331409, cumulative = 54.1065
smoothSolver:  Solving for T, Initial residual = 0.000827852, Final residual = 9.48592e-06, No Iterations 114
ExecutionTime = 2.61 s  ClockTime = 2 s

Time = 141

GAMG:  Solving for p, Initial residual = 0.00305188, Final residual = 0.000143539, No Iterations 3
time step continuity errors : sum local = 0.815405, global = -0.323553, cumulative = 53.783
smoothSolver:  Solving for T, Initial residual = 0.000823222, Final residual = 9.65705e-06, No Iterations 114
ExecutionTime = 2.63 s  ClockTime = 2 s

Time = 142

GAMG:  Solving for p, Initial residual = 0.00302032, Final residual = 0.000139384, No Iterations 3
time step continuity errors : sum local = 0.792282, global = -0.315763, cumulative = 53.4672
smoothSolver:  Solving for T, Initial residual = 0.000817815, Final residual = 9.82328e-06, No Iterations 114
ExecutionTime = 2.65 s  ClockTime = 2 s

Time = 143

GAMG:  Solving for p, Initial residual = 0.00300004, Final residual = 0.000135557, No Iterations 3
time step continuity errors : sum local = 0.770984, global = -0.30884, cumulative = 53.1584
smoothSolver:  Solving for T, Initial residual = 0.000813062, Final residual = 9.98471e-06, No Iterations 114
ExecutionTime = 2.67 s  ClockTime = 2 s

Time = 144

GAMG:  Solving for p, Initial residual = 0.00298685, Final residual = 0.000140181, No Iterations 3
time step continuity errors : sum local = 0.797734, global = -0.352139, cumulative = 52.8062
smoothSolver:  Solving for T, Initial residual = 0.000808568, Final residual = 9.40898e-06, No Iterations 116
ExecutionTime = 2.69 s  ClockTime = 2 s

Time = 145

GAMG:  Solving for p, Initial residual = 0.00297435, Final residual = 0.000145877, No Iterations 3
time step continuity errors : sum local = 0.830652, global = -0.381045, cumulative = 52.4252
smoothSolver:  Solving for T, Initial residual = 0.000805465, Final residual = 9.55134e-06, No Iterations 116
ExecutionTime = 2.71 s  ClockTime = 3 s

Time = 146

GAMG:  Solving for p, Initial residual = 0.00293787, Final residual = 0.000174863, No Iterations 3
time step continuity errors : sum local = 0.996288, global = -0.443626, cumulative = 51.9816
smoothSolver:  Solving for T, Initial residual = 0.000801636, Final residual = 9.696e-06, No Iterations 116
ExecutionTime = 2.73 s  ClockTime = 3 s

Time = 147

GAMG:  Solving for p, Initial residual = 0.00288956, Final residual = 0.000278033, No Iterations 3
time step continuity errors : sum local = 1.58519, global = -0.421973, cumulative = 51.5596
smoothSolver:  Solving for T, Initial residual = 0.000796755, Final residual = 9.86524e-06, No Iterations 116
ExecutionTime = 2.75 s  ClockTime = 3 s

Time = 148

GAMG:  Solving for p, Initial residual = 0.00284472, Final residual = 0.000227408, No Iterations 3
time step continuity errors : sum local = 1.29809, global = -0.0397229, cumulative = 51.5199
smoothSolver:  Solving for T, Initial residual = 0.000793369, Final residual = 9.39859e-06, No Iterations 118
ExecutionTime = 2.77 s  ClockTime = 3 s

Time = 149

GAMG:  Solving for p, Initial residual = 0.00280465, Final residual = 0.000160114, No Iterations 3
time step continuity errors : sum local = 0.914839, global = -0.0771592, cumulative = 51.4427
smoothSolver:  Solving for T, Initial residual = 0.000789299, Final residual = 9.38131e-06, No Iterations 118
ExecutionTime = 2.79 s  ClockTime = 3 s

Time = 150

GAMG:  Solving for p, Initial residual = 0.00276765, Final residual = 0.000133211, No Iterations 3
time step continuity errors : sum local = 0.761245, global = -0.0954049, cumulative = 51.3473
smoothSolver:  Solving for T, Initial residual = 0.000784478, Final residual = 9.52298e-06, No Iterations 118
ExecutionTime = 2.81 s  ClockTime = 3 s

Time = 151

GAMG:  Solving for p, Initial residual = 0.00274832, Final residual = 0.00013131, No Iterations 3
time step continuity errors : sum local = 0.750222, global = -0.0888094, cumulative = 51.2585
smoothSolver:  Solving for T, Initial residual = 0.000780745, Final residual = 9.72459e-06, No Iterations 118
ExecutionTime = 2.84 s  ClockTime = 3 s

Time = 152

GAMG:  Solving for p, Initial residual = 0.00274025, Final residual = 0.000144212, No Iterations 3
time step continuity errors : sum local = 0.82361, global = -0.0668373, cumulative = 51.1917
smoothSolver:  Solving for T, Initial residual = 0.000776475, Final residual = 9.89419e-06, No Iterations 118
ExecutionTime = 2.86 s  ClockTime = 3 s

Time = 153

GAMG:  Solving for p, Initial residual = 0.00273041, Final residual = 0.000156373, No Iterations 3
time step continuity errors : sum local = 0.892564, global = -0.0614524, cumulative = 51.1302
smoothSolver:  Solving for T, Initial residual = 0.000772842, Final residual = 9.44486e-06, No Iterations 120
ExecutionTime = 2.89 s  ClockTime = 3 s

Time = 154

GAMG:  Solving for p, Initial residual = 0.00270284, Final residual = 0.000175961, No Iterations 3
time step continuity errors : sum local = 1.00388, global = -0.0287693, cumulative = 51.1014
smoothSolver:  Solving for T, Initial residual = 0.000769069, Final residual = 9.59546e-06, No Iterations 120
ExecutionTime = 2.91 s  ClockTime = 3 s

Time = 155

GAMG:  Solving for p, Initial residual = 0.002663, Final residual = 0.000193039, No Iterations 3
time step continuity errors : sum local = 1.10098, global = 0.0145329, cumulative = 51.116
smoothSolver:  Solving for T, Initial residual = 0.000764833, Final residual = 9.74829e-06, No Iterations 120
ExecutionTime = 2.93 s  ClockTime = 3 s

Time = 156

GAMG:  Solving for p, Initial residual = 0.00262814, Final residual = 0.000201577, No Iterations 3
time step continuity errors : sum local = 1.14962, global = 0.0545535, cumulative = 51.1705
smoothSolver:  Solving for T, Initial residual = 0.000761359, Final residual = 9.89724e-06, No Iterations 120
ExecutionTime = 2.95 s  ClockTime = 3 s

Time = 157

GAMG:  Solving for p, Initial residual = 0.0025963, Final residual = 0.00020072, No Iterations 3
time step continuity errors : sum local = 1.14493, global = 0.0845455, cumulative = 51.2551
smoothSolver:  Solving for T, Initial residual = 0.000757617, Final residual = 9.47529e-06, No Iterations 122
ExecutionTime = 2.97 s  ClockTime = 3 s

Time = 158

GAMG:  Solving for p, Initial residual = 0.00257109, Final residual = 0.000196303, No Iterations 3
time step continuity errors : sum local = 1.12006, global = 0.0982999, cumulative = 51.3534
smoothSolver:  Solving for T, Initial residual = 0.000753796, Final residual = 9.56195e-06, No Iterations 122
ExecutionTime = 2.99 s  ClockTime = 3 s

Time = 159

GAMG:  Solving for p, Initial residual = 0.00254617, Final residual = 0.000190995, No Iterations 3
time step continuity errors : sum local = 1.09009, global = 0.101887, cumulative = 51.4553
smoothSolver:  Solving for T, Initial residual = 0.000749729, Final residual = 9.71643e-06, No Iterations 122
ExecutionTime = 3.01 s  ClockTime = 3 s

Time = 160

GAMG:  Solving for p, Initial residual = 0.00252011, Final residual = 0.000184589, No Iterations 3
time step continuity errors : sum local = 1.05378, global = 0.103826, cumulative = 51.5591
smoothSolver:  Solving for T, Initial residual = 0.000746305, Final residual = 9.88897e-06, No Iterations 122
ExecutionTime = 3.03 s  ClockTime = 3 s

Time = 161

GAMG:  Solving for p, Initial residual = 0.00249458, Final residual = 0.000179318, No Iterations 3
time step continuity errors : sum local = 1.02383, global = 0.109256, cumulative = 51.6683
smoothSolver:  Solving for T, Initial residual = 0.000743904, Final residual = 9.54282e-06, No Iterations 124
ExecutionTime = 3.05 s  ClockTime = 3 s

Time = 162

GAMG:  Solving for p, Initial residual = 0.00246734, Final residual = 0.00017914, No Iterations 3
time step continuity errors : sum local = 1.02288, global = 0.121946, cumulative = 51.7903
smoothSolver:  Solving for T, Initial residual = 0.000741262, Final residual = 9.69451e-06, No Iterations 124
ExecutionTime = 3.08 s  ClockTime = 3 s

Time = 163

GAMG:  Solving for p, Initial residual = 0.00244194, Final residual = 0.000183192, No Iterations 3
time step continuity errors : sum local = 1.04606, global = 0.136112, cumulative = 51.9264
smoothSolver:  Solving for T, Initial residual = 0.000737251, Final residual = 9.86822e-06, No Iterations 124
ExecutionTime = 3.09 s  ClockTime = 3 s

Time = 164

GAMG:  Solving for p, Initial residual = 0.00241754, Final residual = 0.00018849, No Iterations 3
time step continuity errors : sum local = 1.07639, global = 0.149818, cumulative = 52.0762
smoothSolver:  Solving for T, Initial residual = 0.000733951, Final residual = 9.58732e-06, No Iterations 126
ExecutionTime = 3.12 s  ClockTime = 3 s

Time = 165

GAMG:  Solving for p, Initial residual = 0.00239745, Final residual = 0.000192378, No Iterations 3
time step continuity errors : sum local = 1.09873, global = 0.162908, cumulative = 52.2391
smoothSolver:  Solving for T, Initial residual = 0.000731759, Final residual = 9.74619e-06, No Iterations 126
ExecutionTime = 3.14 s  ClockTime = 3 s

Time = 166

GAMG:  Solving for p, Initial residual = 0.00237532, Final residual = 0.000194064, No Iterations 3
time step continuity errors : sum local = 1.10855, global = 0.17164, cumulative = 52.4108
smoothSolver:  Solving for T, Initial residual = 0.000730119, Final residual = 9.90381e-06, No Iterations 126
ExecutionTime = 3.16 s  ClockTime = 3 s

Time = 167

GAMG:  Solving for p, Initial residual = 0.00234709, Final residual = 0.000193492, No Iterations 3
time step continuity errors : sum local = 1.10554, global = 0.173915, cumulative = 52.5847
smoothSolver:  Solving for T, Initial residual = 0.000726994, Final residual = 9.63558e-06, No Iterations 128
ExecutionTime = 3.18 s  ClockTime = 3 s

Time = 168

GAMG:  Solving for p, Initial residual = 0.00231683, Final residual = 0.000190967, No Iterations 3
time step continuity errors : sum local = 1.09142, global = 0.171156, cumulative = 52.7558
smoothSolver:  Solving for T, Initial residual = 0.000724176, Final residual = 9.76748e-06, No Iterations 128
ExecutionTime = 3.21 s  ClockTime = 3 s

Time = 169

GAMG:  Solving for p, Initial residual = 0.00228508, Final residual = 0.000187554, No Iterations 3
time step continuity errors : sum local = 1.07225, global = 0.16784, cumulative = 52.9237
smoothSolver:  Solving for T, Initial residual = 0.000720677, Final residual = 9.92449e-06, No Iterations 128
ExecutionTime = 3.23 s  ClockTime = 3 s

Time = 170

GAMG:  Solving for p, Initial residual = 0.00225323, Final residual = 0.000184283, No Iterations 3
time step continuity errors : sum local = 1.05387, global = 0.162787, cumulative = 53.0865
smoothSolver:  Solving for T, Initial residual = 0.000717285, Final residual = 9.69475e-06, No Iterations 130
ExecutionTime = 3.25 s  ClockTime = 3 s

Time = 171

GAMG:  Solving for p, Initial residual = 0.00222189, Final residual = 0.000181633, No Iterations 3
time step continuity errors : sum local = 1.03903, global = 0.157829, cumulative = 53.2443
smoothSolver:  Solving for T, Initial residual = 0.000714422, Final residual = 9.79054e-06, No Iterations 130
ExecutionTime = 3.27 s  ClockTime = 3 s

Time = 172

GAMG:  Solving for p, Initial residual = 0.00219497, Final residual = 0.000180497, No Iterations 3
time step continuity errors : sum local = 1.03282, global = 0.152894, cumulative = 53.3972
smoothSolver:  Solving for T, Initial residual = 0.000711101, Final residual = 9.90951e-06, No Iterations 130
ExecutionTime = 3.3 s  ClockTime = 3 s

Time = 173

GAMG:  Solving for p, Initial residual = 0.00217043, Final residual = 0.000180948, No Iterations 3
time step continuity errors : sum local = 1.03568, global = 0.151796, cumulative = 53.549
smoothSolver:  Solving for T, Initial residual = 0.000708275, Final residual = 9.67008e-06, No Iterations 132
ExecutionTime = 3.33 s  ClockTime = 3 s

Time = 174

GAMG:  Solving for p, Initial residual = 0.00214707, Final residual = 0.00018269, No Iterations 3
time step continuity errors : sum local = 1.04595, global = 0.148503, cumulative = 53.6975
smoothSolver:  Solving for T, Initial residual = 0.000705772, Final residual = 9.7593e-06, No Iterations 132
ExecutionTime = 3.35 s  ClockTime = 3 s

Time = 175

GAMG:  Solving for p, Initial residual = 0.00212792, Final residual = 0.000185394, No Iterations 3
time step continuity errors : sum local = 1.06176, global = 0.138923, cumulative = 53.8364
smoothSolver:  Solving for T, Initial residual = 0.000703069, Final residual = 9.90267e-06, No Iterations 132
ExecutionTime = 3.37 s  ClockTime = 3 s

Time = 176

GAMG:  Solving for p, Initial residual = 0.00210892, Final residual = 0.000188045, No Iterations 3
time step continuity errors : sum local = 1.07732, global = 0.117594, cumulative = 53.954
smoothSolver:  Solving for T, Initial residual = 0.00070049, Final residual = 9.66954e-06, No Iterations 134
ExecutionTime = 3.4 s  ClockTime = 3 s

Time = 177

GAMG:  Solving for p, Initial residual = 0.00208769, Final residual = 0.00019034, No Iterations 3
time step continuity errors : sum local = 1.09093, global = 0.0992563, cumulative = 54.0533
smoothSolver:  Solving for T, Initial residual = 0.000697933, Final residual = 9.7685e-06, No Iterations 134
ExecutionTime = 3.42 s  ClockTime = 3 s

Time = 178

GAMG:  Solving for p, Initial residual = 0.00206374, Final residual = 0.000190975, No Iterations 3
time step continuity errors : sum local = 1.09506, global = 0.0608817, cumulative = 54.1141
smoothSolver:  Solving for T, Initial residual = 0.000693966, Final residual = 9.90302e-06, No Iterations 134
ExecutionTime = 3.45 s  ClockTime = 3 s

Time = 179

GAMG:  Solving for p, Initial residual = 0.00203541, Final residual = 0.000189288, No Iterations 3
time step continuity errors : sum local = 1.08593, global = 0.0105226, cumulative = 54.1247
smoothSolver:  Solving for T, Initial residual = 0.000691352, Final residual = 9.68293e-06, No Iterations 136
ExecutionTime = 3.47 s  ClockTime = 3 s

Time = 180

GAMG:  Solving for p, Initial residual = 0.00200445, Final residual = 0.00018467, No Iterations 3
time step continuity errors : sum local = 1.05999, global = -0.0419847, cumulative = 54.0827
smoothSolver:  Solving for T, Initial residual = 0.000689093, Final residual = 9.72333e-06, No Iterations 136
ExecutionTime = 3.49 s  ClockTime = 3 s

Time = 181

GAMG:  Solving for p, Initial residual = 0.0019725, Final residual = 0.000177737, No Iterations 3
time step continuity errors : sum local = 1.02072, global = -0.0916211, cumulative = 53.9911
smoothSolver:  Solving for T, Initial residual = 0.000686362, Final residual = 9.79144e-06, No Iterations 136
ExecutionTime = 3.52 s  ClockTime = 3 s

Time = 182

GAMG:  Solving for p, Initial residual = 0.00194074, Final residual = 0.000167321, No Iterations 3
time step continuity errors : sum local = 0.961385, global = -0.139867, cumulative = 53.8512
smoothSolver:  Solving for T, Initial residual = 0.000684222, Final residual = 9.81437e-06, No Iterations 136
ExecutionTime = 3.54 s  ClockTime = 3 s

Time = 183

GAMG:  Solving for p, Initial residual = 0.00190778, Final residual = 0.00015289, No Iterations 3
time step continuity errors : sum local = 0.878895, global = -0.181131, cumulative = 53.6701
smoothSolver:  Solving for T, Initial residual = 0.000680931, Final residual = 9.88081e-06, No Iterations 136
ExecutionTime = 3.57 s  ClockTime = 3 s

Time = 184

GAMG:  Solving for p, Initial residual = 0.00187702, Final residual = 0.000133573, No Iterations 3
time step continuity errors : sum local = 0.768211, global = -0.205362, cumulative = 53.4647
smoothSolver:  Solving for T, Initial residual = 0.000677509, Final residual = 9.95458e-06, No Iterations 136
ExecutionTime = 3.59 s  ClockTime = 3 s

Time = 185

GAMG:  Solving for p, Initial residual = 0.00185205, Final residual = 0.000123915, No Iterations 3
time step continuity errors : sum local = 0.713, global = -0.204798, cumulative = 53.2599
smoothSolver:  Solving for T, Initial residual = 0.000674397, Final residual = 9.73212e-06, No Iterations 138
ExecutionTime = 3.61 s  ClockTime = 3 s

Time = 186

GAMG:  Solving for p, Initial residual = 0.0018411, Final residual = 0.00012485, No Iterations 3
time step continuity errors : sum local = 0.718765, global = -0.20235, cumulative = 53.0575
smoothSolver:  Solving for T, Initial residual = 0.000673243, Final residual = 9.76459e-06, No Iterations 138
ExecutionTime = 3.63 s  ClockTime = 3 s

Time = 187

GAMG:  Solving for p, Initial residual = 0.00183176, Final residual = 0.000127711, No Iterations 3
time step continuity errors : sum local = 0.735711, global = -0.202515, cumulative = 52.855
smoothSolver:  Solving for T, Initial residual = 0.000670743, Final residual = 9.8256e-06, No Iterations 138
ExecutionTime = 3.66 s  ClockTime = 3 s

Time = 188

GAMG:  Solving for p, Initial residual = 0.00182246, Final residual = 0.000129928, No Iterations 3
time step continuity errors : sum local = 0.749043, global = -0.203174, cumulative = 52.6519
smoothSolver:  Solving for T, Initial residual = 0.000668, Final residual = 9.84115e-06, No Iterations 138
ExecutionTime = 3.68 s  ClockTime = 3 s

Time = 189

GAMG:  Solving for p, Initial residual = 0.00181249, Final residual = 0.000128809, No Iterations 3
time step continuity errors : sum local = 0.743204, global = -0.190321, cumulative = 52.4615
smoothSolver:  Solving for T, Initial residual = 0.000665212, Final residual = 9.86886e-06, No Iterations 138
ExecutionTime = 3.7 s  ClockTime = 3 s

Time = 190

GAMG:  Solving for p, Initial residual = 0.00180283, Final residual = 0.000128989, No Iterations 3
time step continuity errors : sum local = 0.744898, global = -0.192172, cumulative = 52.2694
smoothSolver:  Solving for T, Initial residual = 0.000662497, Final residual = 9.87161e-06, No Iterations 138
ExecutionTime = 3.73 s  ClockTime = 4 s

Time = 191

GAMG:  Solving for p, Initial residual = 0.0017849, Final residual = 0.000128246, No Iterations 3
time step continuity errors : sum local = 0.741281, global = -0.194042, cumulative = 52.0753
smoothSolver:  Solving for T, Initial residual = 0.000659524, Final residual = 9.89835e-06, No Iterations 138
ExecutionTime = 3.75 s  ClockTime = 4 s

Time = 192

GAMG:  Solving for p, Initial residual = 0.00176623, Final residual = 0.000127131, No Iterations 3
time step continuity errors : sum local = 0.735514, global = -0.19641, cumulative = 51.8789
smoothSolver:  Solving for T, Initial residual = 0.000656516, Final residual = 9.91761e-06, No Iterations 138
ExecutionTime = 3.78 s  ClockTime = 4 s

Time = 193

GAMG:  Solving for p, Initial residual = 0.00175322, Final residual = 0.000126424, No Iterations 3
time step continuity errors : sum local = 0.732116, global = -0.200543, cumulative = 51.6784
smoothSolver:  Solving for T, Initial residual = 0.000653501, Final residual = 9.95793e-06, No Iterations 138
ExecutionTime = 3.8 s  ClockTime = 4 s

Time = 194

GAMG:  Solving for p, Initial residual = 0.00173901, Final residual = 0.000126365, No Iterations 3
time step continuity errors : sum local = 0.732469, global = -0.206263, cumulative = 51.4721
smoothSolver:  Solving for T, Initial residual = 0.000650632, Final residual = 9.96642e-06, No Iterations 138
ExecutionTime = 3.82 s  ClockTime = 4 s

Time = 195

GAMG:  Solving for p, Initial residual = 0.00172734, Final residual = 0.00012705, No Iterations 3
time step continuity errors : sum local = 0.737135, global = -0.213077, cumulative = 51.259
smoothSolver:  Solving for T, Initial residual = 0.000647783, Final residual = 9.88546e-06, No Iterations 138
ExecutionTime = 3.84 s  ClockTime = 4 s

Time = 196

GAMG:  Solving for p, Initial residual = 0.00171626, Final residual = 0.000128392, No Iterations 3
time step continuity errors : sum local = 0.745633, global = -0.220611, cumulative = 51.0384
smoothSolver:  Solving for T, Initial residual = 0.000645024, Final residual = 9.88331e-06, No Iterations 138
ExecutionTime = 3.87 s  ClockTime = 4 s

Time = 197

GAMG:  Solving for p, Initial residual = 0.00170598, Final residual = 0.00013021, No Iterations 3
time step continuity errors : sum local = 0.756906, global = -0.228547, cumulative = 50.8099
smoothSolver:  Solving for T, Initial residual = 0.000642041, Final residual = 9.88773e-06, No Iterations 138
ExecutionTime = 3.89 s  ClockTime = 4 s

Time = 198

GAMG:  Solving for p, Initial residual = 0.00169331, Final residual = 0.000132133, No Iterations 3
time step continuity errors : sum local = 0.768825, global = -0.23759, cumulative = 50.5723
smoothSolver:  Solving for T, Initial residual = 0.000638555, Final residual = 9.88966e-06, No Iterations 138
ExecutionTime = 3.92 s  ClockTime = 4 s

Time = 199

GAMG:  Solving for p, Initial residual = 0.00167724, Final residual = 0.000134158, No Iterations 3
time step continuity errors : sum local = 0.781374, global = -0.246304, cumulative = 50.326
smoothSolver:  Solving for T, Initial residual = 0.000634904, Final residual = 9.88905e-06, No Iterations 138
ExecutionTime = 3.94 s  ClockTime = 4 s

Time = 200

GAMG:  Solving for p, Initial residual = 0.00166846, Final residual = 0.000135831, No Iterations 3
time step continuity errors : sum local = 0.791917, global = -0.254345, cumulative = 50.0716
smoothSolver:  Solving for T, Initial residual = 0.0006317, Final residual = 9.81882e-06, No Iterations 138
ExecutionTime = 3.96 s  ClockTime = 4 s

Time = 201

GAMG:  Solving for p, Initial residual = 0.00166669, Final residual = 0.000137047, No Iterations 3
time step continuity errors : sum local = 0.799822, global = -0.26154, cumulative = 49.8101
smoothSolver:  Solving for T, Initial residual = 0.000629322, Final residual = 9.80153e-06, No Iterations 138
ExecutionTime = 3.98 s  ClockTime = 4 s

Time = 202

GAMG:  Solving for p, Initial residual = 0.00166519, Final residual = 0.000137826, No Iterations 3
time step continuity errors : sum local = 0.805214, global = -0.267857, cumulative = 49.5422
smoothSolver:  Solving for T, Initial residual = 0.000627212, Final residual = 9.80082e-06, No Iterations 138
ExecutionTime = 4.01 s  ClockTime = 4 s

Time = 203

GAMG:  Solving for p, Initial residual = 0.00166192, Final residual = 0.000138354, No Iterations 3
time step continuity errors : sum local = 0.809162, global = -0.273972, cumulative = 49.2683
smoothSolver:  Solving for T, Initial residual = 0.000624173, Final residual = 9.7699e-06, No Iterations 138
ExecutionTime = 4.03 s  ClockTime = 4 s

Time = 204

GAMG:  Solving for p, Initial residual = 0.00165401, Final residual = 0.000138708, No Iterations 3
time step continuity errors : sum local = 0.812121, global = -0.279928, cumulative = 48.9883
smoothSolver:  Solving for T, Initial residual = 0.000621034, Final residual = 9.99537e-06, No Iterations 136
ExecutionTime = 4.05 s  ClockTime = 4 s

Time = 205

GAMG:  Solving for p, Initial residual = 0.00164506, Final residual = 0.000138976, No Iterations 3
time step continuity errors : sum local = 0.814613, global = -0.285646, cumulative = 48.7027
smoothSolver:  Solving for T, Initial residual = 0.000617763, Final residual = 9.78295e-06, No Iterations 138
ExecutionTime = 4.07 s  ClockTime = 4 s

Time = 206

GAMG:  Solving for p, Initial residual = 0.00163391, Final residual = 0.000139164, No Iterations 3
time step continuity errors : sum local = 0.816655, global = -0.290917, cumulative = 48.4118
smoothSolver:  Solving for T, Initial residual = 0.00061491, Final residual = 9.91591e-06, No Iterations 136
ExecutionTime = 4.1 s  ClockTime = 4 s

Time = 207

GAMG:  Solving for p, Initial residual = 0.00162793, Final residual = 0.000139247, No Iterations 3
time step continuity errors : sum local = 0.818107, global = -0.295708, cumulative = 48.1161
smoothSolver:  Solving for T, Initial residual = 0.000611798, Final residual = 9.94994e-06, No Iterations 136
ExecutionTime = 4.12 s  ClockTime = 4 s

Time = 208

GAMG:  Solving for p, Initial residual = 0.00162581, Final residual = 0.000139251, No Iterations 3
time step continuity errors : sum local = 0.819119, global = -0.300109, cumulative = 47.816
smoothSolver:  Solving for T, Initial residual = 0.000608574, Final residual = 9.97129e-06, No Iterations 136
ExecutionTime = 4.15 s  ClockTime = 4 s

Time = 209

GAMG:  Solving for p, Initial residual = 0.00162339, Final residual = 0.000139316, No Iterations 3
time step continuity errors : sum local = 0.820515, global = -0.304469, cumulative = 47.5115
smoothSolver:  Solving for T, Initial residual = 0.000605505, Final residual = 9.91542e-06, No Iterations 136
ExecutionTime = 4.17 s  ClockTime = 4 s

Time = 210

GAMG:  Solving for p, Initial residual = 0.00162081, Final residual = 0.000139479, No Iterations 3
time step continuity errors : sum local = 0.822515, global = -0.308895, cumulative = 47.2026
smoothSolver:  Solving for T, Initial residual = 0.000602383, Final residual = 9.89632e-06, No Iterations 136
ExecutionTime = 4.19 s  ClockTime = 4 s

Time = 211

GAMG:  Solving for p, Initial residual = 0.00161282, Final residual = 0.000139461, No Iterations 3
time step continuity errors : sum local = 0.823478, global = -0.31326, cumulative = 46.8893
smoothSolver:  Solving for T, Initial residual = 0.000599326, Final residual = 9.89434e-06, No Iterations 136
ExecutionTime = 4.22 s  ClockTime = 4 s

Time = 212

GAMG:  Solving for p, Initial residual = 0.00160544, Final residual = 0.000139179, No Iterations 3
time step continuity errors : sum local = 0.822896, global = -0.317363, cumulative = 46.572
smoothSolver:  Solving for T, Initial residual = 0.000596201, Final residual = 9.89693e-06, No Iterations 136
ExecutionTime = 4.24 s  ClockTime = 4 s

Time = 213

GAMG:  Solving for p, Initial residual = 0.00159977, Final residual = 0.000138531, No Iterations 3
time step continuity errors : sum local = 0.820169, global = -0.320958, cumulative = 46.251
smoothSolver:  Solving for T, Initial residual = 0.000593061, Final residual = 9.86455e-06, No Iterations 136
ExecutionTime = 4.26 s  ClockTime = 4 s

Time = 214

GAMG:  Solving for p, Initial residual = 0.00159463, Final residual = 0.000137551, No Iterations 3
time step continuity errors : sum local = 0.815477, global = -0.323887, cumulative = 45.9271
smoothSolver:  Solving for T, Initial residual = 0.000589818, Final residual = 9.81817e-06, No Iterations 136
ExecutionTime = 4.29 s  ClockTime = 4 s

Time = 215

GAMG:  Solving for p, Initial residual = 0.00158914, Final residual = 0.000136246, No Iterations 3
time step continuity errors : sum local = 0.808862, global = -0.326292, cumulative = 45.6008
smoothSolver:  Solving for T, Initial residual = 0.000586187, Final residual = 9.8224e-06, No Iterations 136
ExecutionTime = 4.31 s  ClockTime = 4 s

Time = 216

GAMG:  Solving for p, Initial residual = 0.00158686, Final residual = 0.000134803, No Iterations 3
time step continuity errors : sum local = 0.801421, global = -0.328747, cumulative = 45.2721
smoothSolver:  Solving for T, Initial residual = 0.000582072, Final residual = 9.84353e-06, No Iterations 136
ExecutionTime = 4.33 s  ClockTime = 4 s

Time = 217

GAMG:  Solving for p, Initial residual = 0.0015893, Final residual = 0.000133249, No Iterations 3
time step continuity errors : sum local = 0.793305, global = -0.331339, cumulative = 44.9407
smoothSolver:  Solving for T, Initial residual = 0.000578784, Final residual = 9.86027e-06, No Iterations 136
ExecutionTime = 4.36 s  ClockTime = 4 s

Time = 218

GAMG:  Solving for p, Initial residual = 0.0015918, Final residual = 0.000131572, No Iterations 3
time step continuity errors : sum local = 0.784455, global = -0.334146, cumulative = 44.6066
smoothSolver:  Solving for T, Initial residual = 0.000575918, Final residual = 9.86431e-06, No Iterations 136
ExecutionTime = 4.38 s  ClockTime = 4 s

Time = 219

GAMG:  Solving for p, Initial residual = 0.001594, Final residual = 0.000129799, No Iterations 3
time step continuity errors : sum local = 0.775005, global = -0.337345, cumulative = 44.2693
smoothSolver:  Solving for T, Initial residual = 0.000572475, Final residual = 9.99741e-06, No Iterations 134
ExecutionTime = 4.4 s  ClockTime = 4 s

Time = 220

GAMG:  Solving for p, Initial residual = 0.00159816, Final residual = 0.000127897, No Iterations 3
time step continuity errors : sum local = 0.764757, global = -0.340674, cumulative = 43.9286
smoothSolver:  Solving for T, Initial residual = 0.000568859, Final residual = 9.84915e-06, No Iterations 136
ExecutionTime = 4.43 s  ClockTime = 4 s

Time = 221

GAMG:  Solving for p, Initial residual = 0.00160066, Final residual = 0.000125947, No Iterations 3
time step continuity errors : sum local = 0.754203, global = -0.344023, cumulative = 43.5846
smoothSolver:  Solving for T, Initial residual = 0.00056579, Final residual = 9.97635e-06, No Iterations 134
ExecutionTime = 4.45 s  ClockTime = 4 s

Time = 222

GAMG:  Solving for p, Initial residual = 0.00159958, Final residual = 0.000123956, No Iterations 3
time step continuity errors : sum local = 0.74338, global = -0.347405, cumulative = 43.2371
smoothSolver:  Solving for T, Initial residual = 0.000562247, Final residual = 9.99816e-06, No Iterations 134
ExecutionTime = 4.47 s  ClockTime = 4 s

Time = 223

GAMG:  Solving for p, Initial residual = 0.00159698, Final residual = 0.000122036, No Iterations 3
time step continuity errors : sum local = 0.732957, global = -0.350784, cumulative = 42.8864
smoothSolver:  Solving for T, Initial residual = 0.000558423, Final residual = 9.81404e-06, No Iterations 136
ExecutionTime = 4.5 s  ClockTime = 4 s

Time = 224

GAMG:  Solving for p, Initial residual = 0.00159137, Final residual = 0.000120245, No Iterations 3
[...]
smoothSolver:  Solving for T, Initial residual = 1.3744e-05, Final residual = 8.69703e-06, No Iterations 6
ExecutionTime = 16.41 s  ClockTime = 16 s

Time = 1208

GAMG:  Solving for p, Initial residual = 1.22864e-05, Final residual = 8.67417e-07, No Iterations 3
time step continuity errors : sum local = 0.00550428, global = 0.0012095, cumulative = 43.5504
smoothSolver:  Solving for T, Initial residual = 1.23554e-05, Final residual = 9.06457e-06, No Iterations 4
ExecutionTime = 16.42 s  ClockTime = 16 s

Time = 1209

GAMG:  Solving for p, Initial residual = 1.2323e-05, Final residual = 8.6342e-07, No Iterations 3
time step continuity errors : sum local = 0.0054789, global = 0.00120455, cumulative = 43.5516
smoothSolver:  Solving for T, Initial residual = 1.27914e-05, Final residual = 9.38476e-06, No Iterations 4
ExecutionTime = 16.43 s  ClockTime = 16 s

Time = 1210

GAMG:  Solving for p, Initial residual = 1.24034e-05, Final residual = 8.59703e-07, No Iterations 3
time step continuity errors : sum local = 0.0054553, global = 0.00119816, cumulative = 43.5528
smoothSolver:  Solving for T, Initial residual = 1.31272e-05, Final residual = 9.64123e-06, No Iterations 4
ExecutionTime = 16.44 s  ClockTime = 16 s

Time = 1211

GAMG:  Solving for p, Initial residual = 1.24925e-05, Final residual = 8.56104e-07, No Iterations 3
time step continuity errors : sum local = 0.00543245, global = 0.00119109, cumulative = 43.554
smoothSolver:  Solving for T, Initial residual = 1.33628e-05, Final residual = 9.79482e-06, No Iterations 4
ExecutionTime = 16.45 s  ClockTime = 16 s

Time = 1212

GAMG:  Solving for p, Initial residual = 1.25326e-05, Final residual = 8.52351e-07, No Iterations 3
time step continuity errors : sum local = 0.00540863, global = 0.00118457, cumulative = 43.5552
smoothSolver:  Solving for T, Initial residual = 1.34878e-05, Final residual = 9.86432e-06, No Iterations 4
ExecutionTime = 16.46 s  ClockTime = 16 s

Time = 1213

GAMG:  Solving for p, Initial residual = 1.25359e-05, Final residual = 8.48344e-07, No Iterations 3
time step continuity errors : sum local = 0.00538319, global = 0.00117929, cumulative = 43.5563
smoothSolver:  Solving for T, Initial residual = 1.35327e-05, Final residual = 9.8896e-06, No Iterations 4
ExecutionTime = 16.47 s  ClockTime = 16 s

Time = 1214

GAMG:  Solving for p, Initial residual = 1.25118e-05, Final residual = 8.44129e-07, No Iterations 3
time step continuity errors : sum local = 0.00535643, global = 0.00117544, cumulative = 43.5575
smoothSolver:  Solving for T, Initial residual = 1.35354e-05, Final residual = 9.8917e-06, No Iterations 4
ExecutionTime = 16.48 s  ClockTime = 16 s

Time = 1215

GAMG:  Solving for p, Initial residual = 1.24696e-05, Final residual = 8.39827e-07, No Iterations 3
time step continuity errors : sum local = 0.00532912, global = 0.00117282, cumulative = 43.5587
smoothSolver:  Solving for T, Initial residual = 1.35173e-05, Final residual = 9.8815e-06, No Iterations 4
ExecutionTime = 16.49 s  ClockTime = 16 s

Time = 1216

GAMG:  Solving for p, Initial residual = 1.24189e-05, Final residual = 8.35575e-07, No Iterations 3
time step continuity errors : sum local = 0.00530213, global = 0.00117105, cumulative = 43.5599
smoothSolver:  Solving for T, Initial residual = 1.34879e-05, Final residual = 9.8641e-06, No Iterations 4
ExecutionTime = 16.5 s  ClockTime = 16 s

Time = 1217

GAMG:  Solving for p, Initial residual = 1.23622e-05, Final residual = 8.31467e-07, No Iterations 3
time step continuity errors : sum local = 0.00527605, global = 0.00116972, cumulative = 43.561
smoothSolver:  Solving for T, Initial residual = 1.34517e-05, Final residual = 9.84218e-06, No Iterations 4
ExecutionTime = 16.51 s  ClockTime = 16 s

Time = 1218

GAMG:  Solving for p, Initial residual = 1.23035e-05, Final residual = 8.27561e-07, No Iterations 3
time step continuity errors : sum local = 0.00525126, global = 0.00116845, cumulative = 43.5622
smoothSolver:  Solving for T, Initial residual = 1.3411e-05, Final residual = 9.81726e-06, No Iterations 4
ExecutionTime = 16.52 s  ClockTime = 16 s

Time = 1219

GAMG:  Solving for p, Initial residual = 1.22461e-05, Final residual = 8.23853e-07, No Iterations 3
time step continuity errors : sum local = 0.00522772, global = 0.0011669, cumulative = 43.5634
smoothSolver:  Solving for T, Initial residual = 1.33674e-05, Final residual = 9.79024e-06, No Iterations 4
ExecutionTime = 16.53 s  ClockTime = 16 s

Time = 1220

GAMG:  Solving for p, Initial residual = 1.21894e-05, Final residual = 8.20297e-07, No Iterations 3
time step continuity errors : sum local = 0.00520514, global = 0.00116487, cumulative = 43.5645
smoothSolver:  Solving for T, Initial residual = 1.33216e-05, Final residual = 9.76166e-06, No Iterations 4
ExecutionTime = 16.54 s  ClockTime = 16 s

Time = 1221

GAMG:  Solving for p, Initial residual = 1.21334e-05, Final residual = 8.16817e-07, No Iterations 3
time step continuity errors : sum local = 0.00518305, global = 0.00116221, cumulative = 43.5657
smoothSolver:  Solving for T, Initial residual = 1.32742e-05, Final residual = 9.7319e-06, No Iterations 4
ExecutionTime = 16.55 s  ClockTime = 16 s

Time = 1222

GAMG:  Solving for p, Initial residual = 1.2078e-05, Final residual = 8.13328e-07, No Iterations 3
time step continuity errors : sum local = 0.00516091, global = 0.0011589, cumulative = 43.5668
smoothSolver:  Solving for T, Initial residual = 1.32256e-05, Final residual = 9.7012e-06, No Iterations 4
ExecutionTime = 16.56 s  ClockTime = 16 s

Time = 1223

GAMG:  Solving for p, Initial residual = 1.20229e-05, Final residual = 8.09766e-07, No Iterations 3
time step continuity errors : sum local = 0.00513829, global = 0.00115497, cumulative = 43.568
smoothSolver:  Solving for T, Initial residual = 1.31761e-05, Final residual = 9.66977e-06, No Iterations 4
ExecutionTime = 16.57 s  ClockTime = 16 s

Time = 1224

GAMG:  Solving for p, Initial residual = 1.19681e-05, Final residual = 8.06089e-07, No Iterations 3
time step continuity errors : sum local = 0.00511495, global = 0.00115053, cumulative = 43.5692
smoothSolver:  Solving for T, Initial residual = 1.31259e-05, Final residual = 9.6377e-06, No Iterations 4
ExecutionTime = 16.57 s  ClockTime = 16 s

Time = 1225

GAMG:  Solving for p, Initial residual = 1.19136e-05, Final residual = 8.02286e-07, No Iterations 3
time step continuity errors : sum local = 0.00509081, global = 0.00114572, cumulative = 43.5703
smoothSolver:  Solving for T, Initial residual = 1.30751e-05, Final residual = 9.6051e-06, No Iterations 4
ExecutionTime = 16.58 s  ClockTime = 16 s

Time = 1226

GAMG:  Solving for p, Initial residual = 1.18595e-05, Final residual = 7.9838e-07, No Iterations 3
time step continuity errors : sum local = 0.00506601, global = 0.00114068, cumulative = 43.5714
smoothSolver:  Solving for T, Initial residual = 1.30238e-05, Final residual = 9.57208e-06, No Iterations 4
ExecutionTime = 16.59 s  ClockTime = 16 s

Time = 1227

GAMG:  Solving for p, Initial residual = 1.18058e-05, Final residual = 7.9441e-07, No Iterations 3
time step continuity errors : sum local = 0.00504081, global = 0.00113554, cumulative = 43.5726
smoothSolver:  Solving for T, Initial residual = 1.29721e-05, Final residual = 9.53868e-06, No Iterations 4
ExecutionTime = 16.6 s  ClockTime = 16 s

Time = 1228

GAMG:  Solving for p, Initial residual = 1.17526e-05, Final residual = 7.9042e-07, No Iterations 3
time step continuity errors : sum local = 0.00501548, global = 0.0011304, cumulative = 43.5737
smoothSolver:  Solving for T, Initial residual = 1.29202e-05, Final residual = 9.50498e-06, No Iterations 4
ExecutionTime = 16.61 s  ClockTime = 16 s

Time = 1229

GAMG:  Solving for p, Initial residual = 1.16997e-05, Final residual = 7.86448e-07, No Iterations 3
time step continuity errors : sum local = 0.00499027, global = 0.00112531, cumulative = 43.5748
smoothSolver:  Solving for T, Initial residual = 1.2868e-05, Final residual = 9.47101e-06, No Iterations 4
ExecutionTime = 16.62 s  ClockTime = 16 s

Time = 1230

GAMG:  Solving for p, Initial residual = 1.16471e-05, Final residual = 7.82521e-07, No Iterations 3
time step continuity errors : sum local = 0.00496534, global = 0.00112031, cumulative = 43.576
smoothSolver:  Solving for T, Initial residual = 1.28157e-05, Final residual = 9.43683e-06, No Iterations 4
ExecutionTime = 16.64 s  ClockTime = 16 s

Time = 1231

GAMG:  Solving for p, Initial residual = 1.15946e-05, Final residual = 7.78643e-07, No Iterations 3
time step continuity errors : sum local = 0.00494073, global = 0.00111537, cumulative = 43.5771
smoothSolver:  Solving for T, Initial residual = 1.27632e-05, Final residual = 9.40249e-06, No Iterations 4
ExecutionTime = 16.64 s  ClockTime = 16 s

Time = 1232

GAMG:  Solving for p, Initial residual = 1.15421e-05, Final residual = 7.74807e-07, No Iterations 3
time step continuity errors : sum local = 0.00491638, global = 0.00111048, cumulative = 43.5782
smoothSolver:  Solving for T, Initial residual = 1.27106e-05, Final residual = 9.368e-06, No Iterations 4
ExecutionTime = 16.65 s  ClockTime = 17 s

Time = 1233

GAMG:  Solving for p, Initial residual = 1.14895e-05, Final residual = 7.70997e-07, No Iterations 3
time step continuity errors : sum local = 0.0048922, global = 0.00110559, cumulative = 43.5793
smoothSolver:  Solving for T, Initial residual = 1.26581e-05, Final residual = 9.33341e-06, No Iterations 4
ExecutionTime = 16.66 s  ClockTime = 17 s

Time = 1234

GAMG:  Solving for p, Initial residual = 1.14367e-05, Final residual = 7.67196e-07, No Iterations 3
time step continuity errors : sum local = 0.00486807, global = 0.00110066, cumulative = 43.5804
smoothSolver:  Solving for T, Initial residual = 1.26056e-05, Final residual = 9.29875e-06, No Iterations 4
ExecutionTime = 16.67 s  ClockTime = 17 s

Time = 1235

GAMG:  Solving for p, Initial residual = 1.13837e-05, Final residual = 7.63388e-07, No Iterations 3
time step continuity errors : sum local = 0.0048439, global = 0.00109568, cumulative = 43.5815
smoothSolver:  Solving for T, Initial residual = 1.25531e-05, Final residual = 9.26403e-06, No Iterations 4
ExecutionTime = 16.68 s  ClockTime = 17 s

Time = 1236

GAMG:  Solving for p, Initial residual = 1.13306e-05, Final residual = 7.59566e-07, No Iterations 3
time step continuity errors : sum local = 0.00481964, global = 0.00109064, cumulative = 43.5826
smoothSolver:  Solving for T, Initial residual = 1.25006e-05, Final residual = 9.22926e-06, No Iterations 4
ExecutionTime = 16.69 s  ClockTime = 17 s

Time = 1237

GAMG:  Solving for p, Initial residual = 1.12773e-05, Final residual = 7.55729e-07, No Iterations 3
time step continuity errors : sum local = 0.00479529, global = 0.00108555, cumulative = 43.5837
smoothSolver:  Solving for T, Initial residual = 1.24481e-05, Final residual = 9.19448e-06, No Iterations 4
ExecutionTime = 16.7 s  ClockTime = 17 s

Time = 1238

GAMG:  Solving for p, Initial residual = 1.12239e-05, Final residual = 7.51885e-07, No Iterations 3
time step continuity errors : sum local = 0.00477088, global = 0.00108043, cumulative = 43.5847
smoothSolver:  Solving for T, Initial residual = 1.23957e-05, Final residual = 9.15969e-06, No Iterations 4
ExecutionTime = 16.7 s  ClockTime = 17 s

Time = 1239

GAMG:  Solving for p, Initial residual = 1.11703e-05, Final residual = 7.4804e-07, No Iterations 3
time step continuity errors : sum local = 0.00474648, global = 0.0010753, cumulative = 43.5858
smoothSolver:  Solving for T, Initial residual = 1.23434e-05, Final residual = 9.12489e-06, No Iterations 4
ExecutionTime = 16.71 s  ClockTime = 17 s

Time = 1240

GAMG:  Solving for p, Initial residual = 1.11165e-05, Final residual = 7.44208e-07, No Iterations 3
time step continuity errors : sum local = 0.00472215, global = 0.00107018, cumulative = 43.5869
smoothSolver:  Solving for T, Initial residual = 1.22911e-05, Final residual = 9.09012e-06, No Iterations 4
ExecutionTime = 16.72 s  ClockTime = 17 s

Time = 1241

GAMG:  Solving for p, Initial residual = 1.10627e-05, Final residual = 7.404e-07, No Iterations 3
time step continuity errors : sum local = 0.00469799, global = 0.0010651, cumulative = 43.5879
smoothSolver:  Solving for T, Initial residual = 1.22389e-05, Final residual = 9.05537e-06, No Iterations 4
ExecutionTime = 16.73 s  ClockTime = 17 s

Time = 1242

GAMG:  Solving for p, Initial residual = 1.10088e-05, Final residual = 7.36623e-07, No Iterations 3
time step continuity errors : sum local = 0.00467401, global = 0.00106005, cumulative = 43.589
smoothSolver:  Solving for T, Initial residual = 1.21868e-05, Final residual = 9.02066e-06, No Iterations 4
ExecutionTime = 16.74 s  ClockTime = 17 s

Time = 1243

GAMG:  Solving for p, Initial residual = 1.09549e-05, Final residual = 7.32875e-07, No Iterations 3
time step continuity errors : sum local = 0.00465022, global = 0.00105504, cumulative = 43.5901
smoothSolver:  Solving for T, Initial residual = 1.21349e-05, Final residual = 8.98599e-06, No Iterations 4
ExecutionTime = 16.75 s  ClockTime = 17 s

Time = 1244

GAMG:  Solving for p, Initial residual = 1.0901e-05, Final residual = 7.29154e-07, No Iterations 3
time step continuity errors : sum local = 0.0046266, global = 0.00105004, cumulative = 43.5911
smoothSolver:  Solving for T, Initial residual = 1.20831e-05, Final residual = 8.95136e-06, No Iterations 4
ExecutionTime = 16.76 s  ClockTime = 17 s

Time = 1245

GAMG:  Solving for p, Initial residual = 1.08471e-05, Final residual = 7.25455e-07, No Iterations 3
time step continuity errors : sum local = 0.00460312, global = 0.00104506, cumulative = 43.5922
smoothSolver:  Solving for T, Initial residual = 1.20314e-05, Final residual = 8.91681e-06, No Iterations 4
ExecutionTime = 16.77 s  ClockTime = 17 s

Time = 1246

GAMG:  Solving for p, Initial residual = 1.07932e-05, Final residual = 7.21771e-07, No Iterations 3
time step continuity errors : sum local = 0.00457974, global = 0.00104008, cumulative = 43.5932
smoothSolver:  Solving for T, Initial residual = 1.19798e-05, Final residual = 8.88231e-06, No Iterations 4
ExecutionTime = 16.78 s  ClockTime = 17 s

Time = 1247

GAMG:  Solving for p, Initial residual = 1.07394e-05, Final residual = 7.18099e-07, No Iterations 3
time step continuity errors : sum local = 0.00455644, global = 0.00103511, cumulative = 43.5942
smoothSolver:  Solving for T, Initial residual = 1.19284e-05, Final residual = 8.84788e-06, No Iterations 4
ExecutionTime = 16.79 s  ClockTime = 17 s

Time = 1248

GAMG:  Solving for p, Initial residual = 1.06856e-05, Final residual = 7.14438e-07, No Iterations 3
time step continuity errors : sum local = 0.00453319, global = 0.00103013, cumulative = 43.5953
smoothSolver:  Solving for T, Initial residual = 1.18771e-05, Final residual = 8.81353e-06, No Iterations 4
ExecutionTime = 16.8 s  ClockTime = 17 s

Time = 1249

GAMG:  Solving for p, Initial residual = 1.0632e-05, Final residual = 7.10786e-07, No Iterations 3
time step continuity errors : sum local = 0.00451002, global = 0.00102516, cumulative = 43.5963
smoothSolver:  Solving for T, Initial residual = 1.1826e-05, Final residual = 8.77924e-06, No Iterations 4
ExecutionTime = 16.8 s  ClockTime = 17 s

Time = 1250

GAMG:  Solving for p, Initial residual = 1.05785e-05, Final residual = 7.07147e-07, No Iterations 3
time step continuity errors : sum local = 0.00448692, global = 0.0010202, cumulative = 43.5973
smoothSolver:  Solving for T, Initial residual = 1.17751e-05, Final residual = 8.74501e-06, No Iterations 4
ExecutionTime = 16.81 s  ClockTime = 17 s

Time = 1251

GAMG:  Solving for p, Initial residual = 1.0525e-05, Final residual = 7.03522e-07, No Iterations 3
time step continuity errors : sum local = 0.00446391, global = 0.00101526, cumulative = 43.5983
smoothSolver:  Solving for T, Initial residual = 1.17244e-05, Final residual = 8.71086e-06, No Iterations 4
ExecutionTime = 16.82 s  ClockTime = 17 s

Time = 1252

GAMG:  Solving for p, Initial residual = 1.04717e-05, Final residual = 6.99915e-07, No Iterations 3
time step continuity errors : sum local = 0.00444102, global = 0.00101034, cumulative = 43.5993
smoothSolver:  Solving for T, Initial residual = 1.16738e-05, Final residual = 9.98234e-06, No Iterations 2
ExecutionTime = 16.84 s  ClockTime = 17 s

Time = 1253

GAMG:  Solving for p, Initial residual = 1.04186e-05, Final residual = 6.96328e-07, No Iterations 3
time step continuity errors : sum local = 0.00441825, global = 0.00100546, cumulative = 43.6003
smoothSolver:  Solving for T, Initial residual = 1.30481e-05, Final residual = 9.60687e-06, No Iterations 4
ExecutionTime = 16.85 s  ClockTime = 17 s

Time = 1254

GAMG:  Solving for p, Initial residual = 1.03656e-05, Final residual = 6.92762e-07, No Iterations 3
time step continuity errors : sum local = 0.00439562, global = 0.0010006, cumulative = 43.6013
smoothSolver:  Solving for T, Initial residual = 1.25711e-05, Final residual = 9.29706e-06, No Iterations 4
ExecutionTime = 16.85 s  ClockTime = 17 s

Time = 1255

GAMG:  Solving for p, Initial residual = 1.03128e-05, Final residual = 6.89217e-07, No Iterations 3
time step continuity errors : sum local = 0.00437312, global = 0.000995781, cumulative = 43.6023
smoothSolver:  Solving for T, Initial residual = 1.22083e-05, Final residual = 9.02275e-06, No Iterations 4
ExecutionTime = 16.87 s  ClockTime = 17 s

Time = 1256

GAMG:  Solving for p, Initial residual = 1.02602e-05, Final residual = 6.85693e-07, No Iterations 3
time step continuity errors : sum local = 0.00435075, global = 0.000990989, cumulative = 43.6033
smoothSolver:  Solving for T, Initial residual = 1.19033e-05, Final residual = 8.81219e-06, No Iterations 4
ExecutionTime = 16.87 s  ClockTime = 17 s

Time = 1257

GAMG:  Solving for p, Initial residual = 1.02078e-05, Final residual = 6.82189e-07, No Iterations 3
time step continuity errors : sum local = 0.00432851, global = 0.000986224, cumulative = 43.6043
smoothSolver:  Solving for T, Initial residual = 1.1682e-05, Final residual = 9.98931e-06, No Iterations 2
ExecutionTime = 16.88 s  ClockTime = 17 s

Time = 1258

GAMG:  Solving for p, Initial residual = 1.01556e-05, Final residual = 6.78704e-07, No Iterations 3
time step continuity errors : sum local = 0.00430639, global = 0.000981483, cumulative = 43.6053
smoothSolver:  Solving for T, Initial residual = 1.29643e-05, Final residual = 9.54778e-06, No Iterations 4
ExecutionTime = 16.89 s  ClockTime = 17 s

Time = 1259

GAMG:  Solving for p, Initial residual = 1.01037e-05, Final residual = 6.75238e-07, No Iterations 3
time step continuity errors : sum local = 0.00428439, global = 0.000976764, cumulative = 43.6063
smoothSolver:  Solving for T, Initial residual = 1.24312e-05, Final residual = 9.20712e-06, No Iterations 4
ExecutionTime = 16.9 s  ClockTime = 17 s

Time = 1260

GAMG:  Solving for p, Initial residual = 1.00519e-05, Final residual = 6.71791e-07, No Iterations 3
time step continuity errors : sum local = 0.00426251, global = 0.000972065, cumulative = 43.6072
smoothSolver:  Solving for T, Initial residual = 1.20399e-05, Final residual = 8.91613e-06, No Iterations 4
ExecutionTime = 16.91 s  ClockTime = 17 s

Time = 1261

GAMG:  Solving for p, Initial residual = 1.00005e-05, Final residual = 6.68366e-07, No Iterations 3
time step continuity errors : sum local = 0.00424078, global = 0.000967484, cumulative = 43.6082
smoothSolver:  Solving for T, Initial residual = 1.17196e-05, Final residual = 8.69572e-06, No Iterations 4
ExecutionTime = 16.92 s  ClockTime = 17 s

Time = 1262

GAMG:  Solving for p, Initial residual = 9.94921e-06, Final residual = 6.64961e-07, No Iterations 3
time step continuity errors : sum local = 0.00421916, global = 0.000962835, cumulative = 43.6092
smoothSolver:  Solving for T, Initial residual = 1.14886e-05, Final residual = 9.83677e-06, No Iterations 2
ExecutionTime = 16.93 s  ClockTime = 17 s


SIMPLE solution converged in 1262 iterations

End

